@<TRIPOS>MOLECULE
CHEMBL402908
   60    63     0     0     0
SMALL
USER_CHARGES

@<TRIPOS>ATOM
      1 C1          0.0104    1.5131    0.0146 C.3       1 <0>        -0.1487
      2 C2          0.0186   -0.0168    0.0049 C.3       1 <0>        -0.0887
      3 C3         -1.4216   -0.5345    0.0125 C.3       1 <0>        -0.1328
      4 C4         -1.4098   -2.0657   -0.0322 C.3       1 <0>         0.1388
      5 N1         -0.5833   -2.5648    1.0754 N.pl3     1 <0>        -0.6765
      6 C5          0.7901   -2.0618    1.2143 C.3       1 <0>         0.1435
      7 C6          0.7537   -0.5306    1.2450 C.3       1 <0>        -0.1329
      8 C7         -1.0947   -3.5009    1.9807 C.ar      1 <0>         0.1481
      9 C8         -0.9466   -4.8549    1.7348 C.ar      1 <0>        -0.0800
     10 C9         -1.4581   -5.7855    2.6404 C.ar      1 <0>         0.0081
     11 C10        -2.1171   -5.3480    3.7908 C.ar      1 <0>        -0.0746
     12 C11        -2.2627   -3.9980    4.0323 C.ar      1 <0>        -0.1231
     13 C12        -1.7498   -3.0700    3.1360 C.ar      1 <0>         0.1450
     14 N2         -1.8946   -1.7017    3.3878 N.am      1 <0>        -0.6487
     15 C13        -2.0531   -1.2622    4.6520 C.2       1 <0>         0.6013
     16 O1         -1.9699   -2.0421    5.5822 O.2       1 <0>        -0.4851
     17 C14        -2.3265    0.1593    4.9071 C.2       1 <0>        -0.0419
     18 C15        -2.5010    0.7299    6.1365 C.2       1 <0>        -0.1123
     19 C16        -2.7369    2.0929    5.9254 C.2       1 <0>        -0.1280
     20 C17        -2.6960    2.2979    4.5639 C.2       1 <0>         0.0773
     21 O2         -2.4411    1.1183    3.9687 O.3       1 <0>        -0.1450
     22 C18        -2.8857    3.5510    3.8975 C.1       1 <0>         0.2799
     23 N3         -3.0363    4.5451    3.3687 N.1       1 <0>        -0.3545
     24 C19        -1.3076   -7.1874    2.3898 C.1       1 <0>        -0.1252
     25 C20        -1.1842   -8.3366    2.1843 C.1       1 <0>        -0.1509
     26 C21        -1.0295   -9.7776    1.9266 C.3       1 <0>         0.1686
     27 N4         -1.6486  -10.5397    3.0193 N.3       1 <0>        -0.5357
     28 C22        -0.9218  -10.3367    4.2810 C.3       1 <0>         0.0161
     29 C23        -1.6336  -11.0988    5.4019 C.3       1 <0>         0.0635
     30 O3         -1.7268  -12.4811    5.0472 O.3       1 <0>        -0.3847
     31 C24        -2.4293  -12.7153    3.8236 C.3       1 <0>         0.0630
     32 C25        -1.7256  -11.9696    2.6866 C.3       1 <0>         0.0170
     33 H1          1.0360    1.8820    0.0080 H         1 <0>         0.0554
     34 H2         -0.5131    1.8792   -0.8685 H         1 <0>         0.0553
     35 H3         -0.4976    1.8681    0.9113 H         1 <0>         0.0512
     36 H4          0.5271   -0.3716   -0.8916 H         1 <0>         0.0729
     37 H5         -1.9233   -0.2009    0.9208 H         1 <0>         0.0562
     38 H6         -1.9512   -0.1492   -0.8587 H         1 <0>         0.0736
     39 H7         -2.4273   -2.4422    0.0727 H         1 <0>         0.0708
     40 H8         -0.9901   -2.4004   -0.9808 H         1 <0>         0.0570
     41 H9          1.2241   -2.4356    2.1417 H         1 <0>         0.0696
     42 H10         1.3892   -2.3961    0.3673 H         1 <0>         0.0550
     43 H11         1.7722   -0.1425    1.2511 H         1 <0>         0.0712
     44 H12         0.2315   -0.1970    2.1418 H         1 <0>         0.0590
     45 H13        -0.4366   -5.1906    0.8439 H         1 <0>         0.1315
     46 H14        -2.5136   -6.0674    4.4920 H         1 <0>         0.1326
     47 H15        -2.7729   -3.6620    4.9229 H         1 <0>         0.1527
     48 H16        -1.8809   -1.0691    2.6526 H         1 <0>         0.4175
     49 H17        -2.4641    0.2245    7.0903 H         1 <0>         0.1785
     50 H18        -2.9169    2.8402    6.6840 H         1 <0>         0.1769
     51 H19        -1.5156  -10.0326    0.9849 H         1 <0>         0.1027
     52 H20         0.0306  -10.0242    1.8668 H         1 <0>         0.0631
     53 H21         0.0974  -10.7091    4.1778 H         1 <0>         0.0462
     54 H22        -0.8991   -9.2737    4.5210 H         1 <0>         0.0882
     55 H23        -1.0667  -10.9980    6.3274 H         1 <0>         0.1002
     56 H24        -2.6345  -10.6904    5.5411 H         1 <0>         0.0612
     57 H25        -2.4379  -13.7837    3.6076 H         1 <0>         0.1011
     58 H26        -3.4534  -12.3539    3.9169 H         1 <0>         0.0615
     59 H27        -2.2896  -12.0986    1.7629 H         1 <0>         0.0906
     60 H28        -0.7192  -12.3681    2.5580 H         1 <0>         0.0476
@<TRIPOS>BOND
     1    1    2 1
     2    1   33 1
     3    1   34 1
     4    1   35 1
     5    2    7 1
     6    2    3 1
     7    2   36 1
     8    3    4 1
     9    3   37 1
    10    3   38 1
    11    4    5 1
    12    4   39 1
    13    4   40 1
    14    5    6 1
    15    5    8 1
    16    6    7 1
    17    6   41 1
    18    6   42 1
    19    7   43 1
    20    7   44 1
    21    8   13 ar
    22    8    9 ar
    23    9   10 ar
    24    9   45 1
    25   10   11 ar
    26   10   24 1
    27   11   12 ar
    28   11   46 1
    29   12   13 ar
    30   12   47 1
    31   13   14 1
    32   14   15 am
    33   14   48 1
    34   15   16 2
    35   15   17 1
    36   17   21 1
    37   17   18 2
    38   18   19 1
    39   18   49 1
    40   19   20 2
    41   19   50 1
    42   20   21 1
    43   20   22 1
    44   22   23 3
    45   24   25 3
    46   25   26 1
    47   26   27 1
    48   26   51 1
    49   26   52 1
    50   27   32 1
    51   27   28 1
    52   28   29 1
    53   28   53 1
    54   28   54 1
    55   29   30 1
    56   29   55 1
    57   29   56 1
    58   30   31 1
    59   31   32 1
    60   31   57 1
    61   31   58 1
    62   32   59 1
    63   32   60 1
@<TRIPOS>MOLECULE
CHEMBL1172529
   58    61     0     0     0
SMALL
USER_CHARGES

@<TRIPOS>ATOM
      1 C1          0.0082    1.5265   -0.0268 C.3       1 <0>         0.0887
      2 N1          0.0293    0.0617   -0.0255 N.pl3     1 <0>        -1.0076
      3 C2          1.3084   -0.6524   -0.0408 C.3       1 <0>         0.0921
      4 S1         -1.3926   -0.7869   -0.0067 S.o2      1 <0>         2.6945
      5 O1         -1.0963   -2.0638    0.5418 O.2       1 <0>        -0.9563
      6 O2         -2.3725    0.0750    0.5556 O.2       1 <0>        -0.9557
      7 C3         -1.8611   -1.0556   -1.6839 C.ar      1 <0>        -0.6904
      8 C4         -2.6542   -0.1280   -2.3349 C.ar      1 <0>        -0.0145
      9 C5         -3.0242   -0.3333   -3.6485 C.ar      1 <0>        -0.1404
     10 C6         -2.5972   -1.4778   -4.3192 C.ar      1 <0>         0.0389
     11 C7         -1.7983   -2.4091   -3.6584 C.ar      1 <0>        -0.1412
     12 C8         -1.4297   -2.1907   -2.3464 C.ar      1 <0>        -0.0156
     13 C9         -2.9921   -1.7044   -5.7312 C.ar      1 <0>        -0.1022
     14 C10        -3.7877   -0.7673   -6.3915 C.ar      1 <0>        -0.0769
     15 C11        -4.1577   -0.9719   -7.7040 C.ar      1 <0>        -0.1278
     16 C12        -3.7407   -2.1122   -8.3774 C.ar      1 <0>         0.1953
     17 C13        -2.9409   -3.0593   -7.7217 C.ar      1 <0>        -0.0859
     18 C14        -2.5641   -2.8479   -6.3977 C.ar      1 <0>        -0.0655
     19 C15        -2.4954   -4.2742   -8.4342 C.2       1 <0>        -0.0962
     20 C16        -3.3737   -5.2265   -8.6394 C.2       1 <0>        -0.1196
     21 C17        -3.0598   -6.5164   -9.3395 C.3       1 <0>        -0.0888
     22 C18        -1.7549   -6.3840  -10.1276 C.3       1 <0>        -0.1224
     23 C19        -0.6848   -5.7934   -9.2013 C.3       1 <0>        -0.1167
     24 C20        -1.0659   -4.3439   -8.8863 C.3       1 <0>        -0.0757
     25 N2         -4.1173   -2.3158   -9.7047 N.am      1 <0>        -0.6625
     26 C21        -5.3282   -1.9064  -10.1320 C.2       1 <0>         0.6279
     27 O3         -6.0595   -1.2867   -9.3837 O.2       1 <0>        -0.5285
     28 C22        -5.7665   -2.2100  -11.5075 C.2       1 <0>         0.0481
     29 N3         -5.0415   -2.9016  -12.4392 N.2       1 <0>        -0.5287
     30 C23        -5.7837   -2.9682  -13.5637 C.2       1 <0>        -0.0061
     31 C24        -6.9683   -2.3078  -13.3012 C.2       1 <0>        -0.0421
     32 N4         -6.9177   -1.8658  -12.0352 N.2       1 <0>        -0.4511
     33 C25        -8.0570   -2.1312  -14.2146 C.1       1 <0>         0.3317
     34 N5         -8.9207   -1.9911  -14.9391 N.1       1 <0>        -0.4909
     35 H1          1.0304    1.9047   -0.0400 H         1 <0>         0.0818
     36 H2         -0.5220    1.8815   -0.9105 H         1 <0>         0.0607
     37 H3         -0.4996    1.8834    0.8693 H         1 <0>         0.0687
     38 H4          1.6385   -0.8285    0.9829 H         1 <0>         0.0606
     39 H5          1.1854   -1.6072   -0.5522 H         1 <0>         0.0720
     40 H6          2.0529   -0.0530   -0.5647 H         1 <0>         0.0744
     41 H7         -2.9849    0.7585   -1.8141 H         1 <0>         0.1391
     42 H8         -3.6438    0.3914   -4.1557 H         1 <0>         0.1370
     43 H9         -1.4646   -3.2978   -4.1734 H         1 <0>         0.1353
     44 H10        -0.8067   -2.9094   -1.8348 H         1 <0>         0.1383
     45 H11        -4.1153    0.1214   -5.8725 H         1 <0>         0.1274
     46 H12        -4.7739   -0.2431   -8.2095 H         1 <0>         0.1481
     47 H13        -1.9446   -3.5715   -5.8887 H         1 <0>         0.1277
     48 H14        -4.3819   -5.0736   -8.2835 H         1 <0>         0.1030
     49 H15        -2.9572   -7.3123   -8.6018 H         1 <0>         0.0717
     50 H16        -3.8717   -6.7632  -10.0237 H         1 <0>         0.0757
     51 H17        -1.4361   -7.3665  -10.4759 H         1 <0>         0.0626
     52 H18        -1.9075   -5.7219  -10.9800 H         1 <0>         0.0707
     53 H19        -0.6390   -6.3722   -8.2788 H         1 <0>         0.0622
     54 H20         0.2842   -5.8162   -9.6998 H         1 <0>         0.0639
     55 H21        -0.9389   -3.7312   -9.7788 H         1 <0>         0.0743
     56 H22        -0.4181   -3.9655   -8.0955 H         1 <0>         0.0689
     57 H23        -3.5078   -2.7521  -10.3204 H         1 <0>         0.4200
     58 H24        -5.5052   -3.4462  -14.4912 H         1 <0>         0.1478
@<TRIPOS>BOND
     1    1    2 1
     2    1   35 1
     3    1   36 1
     4    1   37 1
     5    2    3 1
     6    2    4 1
     7    3   38 1
     8    3   39 1
     9    3   40 1
    10    4    5 2
    11    4    6 2
    12    4    7 1
    13    7   12 ar
    14    7    8 ar
    15    8    9 ar
    16    8   41 1
    17    9   10 ar
    18    9   42 1
    19   10   11 ar
    20   10   13 1
    21   11   12 ar
    22   11   43 1
    23   12   44 1
    24   13   18 ar
    25   13   14 ar
    26   14   15 ar
    27   14   45 1
    28   15   16 ar
    29   15   46 1
    30   16   17 ar
    31   16   25 1
    32   17   18 ar
    33   17   19 1
    34   18   47 1
    35   19   24 1
    36   19   20 2
    37   20   21 1
    38   20   48 1
    39   21   22 1
    40   21   49 1
    41   21   50 1
    42   22   23 1
    43   22   51 1
    44   22   52 1
    45   23   24 1
    46   23   53 1
    47   23   54 1
    48   24   55 1
    49   24   56 1
    50   25   26 am
    51   25   57 1
    52   26   27 2
    53   26   28 1
    54   28   32 2
    55   28   29 1
    56   29   30 1
    57   30   31 2
    58   30   58 1
    59   31   32 1
    60   31   33 1
    61   33   34 3
@<TRIPOS>MOLECULE
CHEMBL1172529__1
   59    62     0     0     0
SMALL
USER_CHARGES

@<TRIPOS>ATOM
      1 C1          0.0082    1.5265   -0.0268 C.3       1 <0>         0.0880
      2 N1          0.0293    0.0617   -0.0255 N.pl3     1 <0>        -1.0064
      3 C2          1.3084   -0.6524   -0.0408 C.3       1 <0>         0.0910
      4 S1         -1.3926   -0.7869   -0.0067 S.o2      1 <0>         2.6927
      5 O1         -1.0963   -2.0638    0.5418 O.2       1 <0>        -0.9526
      6 O2         -2.3725    0.0750    0.5556 O.2       1 <0>        -0.9525
      7 C3         -1.8611   -1.0556   -1.6839 C.ar      1 <0>        -0.6814
      8 C4         -2.6542   -0.1280   -2.3349 C.ar      1 <0>        -0.0150
      9 C5         -3.0242   -0.3333   -3.6485 C.ar      1 <0>        -0.1346
     10 C6         -2.5972   -1.4778   -4.3192 C.ar      1 <0>         0.0203
     11 C7         -1.7983   -2.4091   -3.6584 C.ar      1 <0>        -0.1349
     12 C8         -1.4297   -2.1907   -2.3464 C.ar      1 <0>        -0.0155
     13 C9         -2.9921   -1.7044   -5.7312 C.ar      1 <0>        -0.0721
     14 C10        -3.7877   -0.7673   -6.3915 C.ar      1 <0>        -0.0826
     15 C11        -4.1577   -0.9719   -7.7040 C.ar      1 <0>        -0.1166
     16 C12        -3.7407   -2.1122   -8.3774 C.ar      1 <0>         0.1615
     17 C13        -2.9409   -3.0593   -7.7217 C.ar      1 <0>        -0.0649
     18 C14        -2.5641   -2.8479   -6.3977 C.ar      1 <0>        -0.0706
     19 C15        -2.4954   -4.2742   -8.4342 C.2       1 <0>        -0.1007
     20 C16        -3.3737   -5.2265   -8.6394 C.2       1 <0>        -0.1194
     21 C17        -3.0598   -6.5164   -9.3395 C.3       1 <0>        -0.0915
     22 C18        -1.7549   -6.3840  -10.1276 C.3       1 <0>        -0.1225
     23 C19        -0.6848   -5.7934   -9.2013 C.3       1 <0>        -0.1195
     24 C20        -1.0659   -4.3439   -8.8863 C.3       1 <0>        -0.0774
     25 N2         -4.1173   -2.3158   -9.7047 N.am      1 <0>        -0.6397
     26 C21        -5.3282   -1.9064  -10.1320 C.2       1 <0>         0.6115
     27 O3         -6.0595   -1.2867   -9.3837 O.2       1 <0>        -0.5115
     28 C22        -5.7665   -2.2100  -11.5075 C.2       1 <0>         0.1591
     29 N3         -6.9645   -1.8464  -12.0594 N.pl3     1 <0>        -0.5108
     30 H1         -7.6706   -1.3476  -11.6196 H         1 <0>         0.4430
     31 C23        -6.9843   -2.3076  -13.3270 C.2       1 <0>         0.0655
     32 C24        -5.7824   -2.9557  -13.5361 C.2       1 <0>         0.0607
     33 N4         -5.0686   -2.8681  -12.4031 N.2       1 <0>        -0.4014
     34 C25        -5.3701   -3.6008  -14.7463 C.1       1 <0>         0.2937
     35 N5         -5.0431   -4.1124  -15.7063 N.1       1 <0>        -0.3913
     36 H2          1.0304    1.9047   -0.0400 H         1 <0>         0.0834
     37 H3         -0.5220    1.8815   -0.9105 H         1 <0>         0.0599
     38 H4         -0.4996    1.8834    0.8693 H         1 <0>         0.0701
     39 H5          1.6385   -0.8285    0.9829 H         1 <0>         0.0628
     40 H6          1.1854   -1.6072   -0.5522 H         1 <0>         0.0717
     41 H7          2.0529   -0.0530   -0.5647 H         1 <0>         0.0755
     42 H8         -2.9849    0.7585   -1.8141 H         1 <0>         0.1421
     43 H9         -3.6438    0.3914   -4.1557 H         1 <0>         0.1370
     44 H10        -1.4646   -3.2978   -4.1734 H         1 <0>         0.1360
     45 H11        -0.8067   -2.9094   -1.8348 H         1 <0>         0.1417
     46 H12        -4.1153    0.1214   -5.8725 H         1 <0>         0.1333
     47 H13        -4.7739   -0.2431   -8.2095 H         1 <0>         0.1465
     48 H14        -1.9446   -3.5715   -5.8887 H         1 <0>         0.1343
     49 H15        -4.3819   -5.0736   -8.2835 H         1 <0>         0.1030
     50 H16        -2.9572   -7.3123   -8.6018 H         1 <0>         0.0771
     51 H17        -3.8717   -6.7632  -10.0237 H         1 <0>         0.0744
     52 H18        -1.4361   -7.3665  -10.4759 H         1 <0>         0.0665
     53 H19        -1.9075   -5.7219  -10.9800 H         1 <0>         0.0669
     54 H20        -0.6390   -6.3722   -8.2788 H         1 <0>         0.0657
     55 H21         0.2842   -5.8162   -9.6998 H         1 <0>         0.0678
     56 H22        -0.9389   -3.7312   -9.7788 H         1 <0>         0.0743
     57 H23        -0.4181   -3.9655   -8.0955 H         1 <0>         0.0730
     58 H24        -3.5078   -2.7521  -10.3204 H         1 <0>         0.4256
     59 H25        -7.7861   -2.1923  -14.0413 H         1 <0>         0.2097
@<TRIPOS>BOND
     1    1    2 1
     2    1   36 1
     3    1   37 1
     4    1   38 1
     5    2    3 1
     6    2    4 1
     7    3   39 1
     8    3   40 1
     9    3   41 1
    10    4    5 2
    11    4    6 2
    12    4    7 1
    13    7   12 ar
    14    7    8 ar
    15    8    9 ar
    16    8   42 1
    17    9   10 ar
    18    9   43 1
    19   10   11 ar
    20   10   13 1
    21   11   12 ar
    22   11   44 1
    23   12   45 1
    24   13   18 ar
    25   13   14 ar
    26   14   15 ar
    27   14   46 1
    28   15   16 ar
    29   15   47 1
    30   16   17 ar
    31   16   25 1
    32   17   18 ar
    33   17   19 1
    34   18   48 1
    35   19   24 1
    36   19   20 2
    37   20   21 1
    38   20   49 1
    39   21   22 1
    40   21   50 1
    41   21   51 1
    42   22   23 1
    43   22   52 1
    44   22   53 1
    45   23   24 1
    46   23   54 1
    47   23   55 1
    48   24   56 1
    49   24   57 1
    50   25   26 am
    51   25   58 1
    52   26   27 2
    53   26   28 1
    54   28   33 2
    55   28   29 1
    56   29   30 1
    57   29   31 1
    58   31   32 2
    59   31   59 1
    60   32   33 1
    61   32   34 1
    62   34   35 3
@<TRIPOS>MOLECULE
CHEMBL250156
   60    63     0     0     0
SMALL
USER_CHARGES

@<TRIPOS>ATOM
      1 C1         -0.0324    1.4384   -0.0235 C.3       1 <0>        -0.0458
      2 N1         -0.0175   -0.0305   -0.0262 N.4       1 <0>        -0.3881
      3 C2         -1.3972   -0.5339   -0.0069 C.3       1 <0>        -0.0024
      4 C3         -1.3825   -2.0640   -0.0287 C.3       1 <0>         0.0255
      5 N2         -0.6451   -2.5607    1.1416 N.3       1 <0>        -0.5319
      6 C4          0.7310   -2.0447    1.1490 C.3       1 <0>         0.0202
      7 C5          0.6989   -0.5148    1.1612 C.3       1 <0>        -0.0024
      8 C6         -0.6571   -4.0289    1.1871 C.3       1 <0>         0.1010
      9 C7         -0.1124   -4.4949    2.5127 C.ar      1 <0>        -0.0835
     10 C8          1.2433   -4.7259    2.6581 C.ar      1 <0>        -0.1218
     11 C9          1.7497   -5.1529    3.8713 C.ar      1 <0>        -0.1060
     12 C10         0.8973   -5.3510    4.9475 C.ar      1 <0>         0.1666
     13 C11        -0.4702   -5.1180    4.8008 C.ar      1 <0>         0.1357
     14 C12        -0.9686   -4.6846    3.5811 C.ar      1 <0>        -0.0888
     15 N3         -1.3364   -5.3160    5.8831 N.am      1 <0>        -0.6523
     16 C13        -2.4064   -4.5127    6.0456 C.2       1 <0>         0.6088
     17 O1         -2.6657   -3.6682    5.2090 O.2       1 <0>        -0.4944
     18 C14        -3.2599   -4.6568    7.2335 C.2       1 <0>        -0.0485
     19 C15        -4.3714   -3.9121    7.5122 C.2       1 <0>        -0.1099
     20 C16        -4.8792   -4.3751    8.7311 C.2       1 <0>        -0.1307
     21 C17        -4.0486   -5.3917    9.1481 C.2       1 <0>         0.0863
     22 O2         -3.0808   -5.5487    8.2265 O.3       1 <0>        -0.1449
     23 C18        -4.1933   -6.1539   10.3518 C.1       1 <0>         0.2748
     24 N4         -4.3081   -6.7584   11.3067 N.1       1 <0>        -0.3473
     25 N5          1.4074   -5.7837    6.1762 N.pl3     1 <0>        -0.6795
     26 C19         1.5187   -7.2174    6.4775 C.3       1 <0>         0.1399
     27 C20         2.9590   -7.5217    6.9015 C.3       1 <0>        -0.1356
     28 C21         3.3498   -6.6035    8.0617 C.3       1 <0>        -0.1183
     29 C22         3.2786   -5.1443    7.6059 C.3       1 <0>        -0.1363
     30 C23         1.8477   -4.8130    7.1875 C.3       1 <0>         0.1474
     31 H1          0.9914    1.8122   -0.0391 H         1 <0>         0.1236
     32 H2         -0.5640    1.7980   -0.9045 H         1 <0>         0.1240
     33 H3         -0.5357    1.7950    0.8752 H         1 <0>         0.1230
     34 H4         -1.8975   -0.1883    0.8978 H         1 <0>         0.1383
     35 H5         -1.9315   -0.1632   -0.8817 H         1 <0>         0.1356
     36 H6         -2.4059   -2.4380    0.0007 H         1 <0>         0.1244
     37 H7         -0.8945   -2.4100   -0.9398 H         1 <0>         0.0604
     38 H8          1.2496   -2.4046    2.0377 H         1 <0>         0.1267
     39 H9          1.2539   -2.3904    0.2573 H         1 <0>         0.0599
     40 H10         1.7186   -0.1299    1.1523 H         1 <0>         0.1345
     41 H11         0.1879   -0.1692    2.0598 H         1 <0>         0.1376
     42 H12        -1.6794   -4.3878    1.0680 H         1 <0>         0.0970
     43 H13        -0.0376   -4.4225    0.3812 H         1 <0>         0.0568
     44 H14         1.9084   -4.5725    1.8211 H         1 <0>         0.1203
     45 H15         2.8090   -5.3327    3.9812 H         1 <0>         0.1293
     46 H16        -2.0262   -4.4993    3.4651 H         1 <0>         0.1438
     47 H17        -1.1665   -6.0313    6.5158 H         1 <0>         0.4195
     48 H18        -4.7801   -3.1167    6.9066 H         1 <0>         0.1766
     49 H19        -5.7539   -4.0061    9.2460 H         1 <0>         0.1777
     50 H20         0.8371   -7.4744    7.2883 H         1 <0>         0.0524
     51 H21         1.2688   -7.7979    5.5894 H         1 <0>         0.0699
     52 H22         3.0324   -8.5616    7.2199 H         1 <0>         0.0705
     53 H23         3.6300   -7.3502    6.0598 H         1 <0>         0.0641
     54 H24         2.6633   -6.7578    8.8941 H         1 <0>         0.0624
     55 H25         4.3658   -6.8348    8.3816 H         1 <0>         0.0632
     56 H26         3.5796   -4.4919    8.4256 H         1 <0>         0.0695
     57 H27         3.9466   -4.9951    6.7576 H         1 <0>         0.0630
     58 H28         1.8148   -3.8076    6.7677 H         1 <0>         0.0657
     59 H29         1.1934   -4.8696    8.0575 H         1 <0>         0.0506
     60 H30         0.4489   -0.3604   -0.8579 H         1 <0>         0.4217
@<TRIPOS>BOND
     1    1    2 1
     2    1   31 1
     3    1   32 1
     4    1   33 1
     5    2    7 1
     6    2    3 1
     7    2   60 1
     8    3    4 1
     9    3   34 1
    10    3   35 1
    11    4    5 1
    12    4   36 1
    13    4   37 1
    14    5    6 1
    15    5    8 1
    16    6    7 1
    17    6   38 1
    18    6   39 1
    19    7   40 1
    20    7   41 1
    21    8    9 1
    22    8   42 1
    23    8   43 1
    24    9   14 ar
    25    9   10 ar
    26   10   11 ar
    27   10   44 1
    28   11   12 ar
    29   11   45 1
    30   12   13 ar
    31   12   25 1
    32   13   14 ar
    33   13   15 1
    34   14   46 1
    35   15   16 am
    36   15   47 1
    37   16   17 2
    38   16   18 1
    39   18   22 1
    40   18   19 2
    41   19   20 1
    42   19   48 1
    43   20   21 2
    44   20   49 1
    45   21   22 1
    46   21   23 1
    47   23   24 3
    48   25   30 1
    49   25   26 1
    50   26   27 1
    51   26   50 1
    52   26   51 1
    53   27   28 1
    54   27   52 1
    55   27   53 1
    56   28   29 1
    57   28   54 1
    58   28   55 1
    59   29   30 1
    60   29   56 1
    61   29   57 1
    62   30   58 1
    63   30   59 1
@<TRIPOS>MOLECULE
CHEMBL250156__1
   60    63     0     0     0
SMALL
USER_CHARGES

@<TRIPOS>ATOM
      1 C1         -0.0333    1.4390   -0.0257 C.3       1 <0>         0.0195
      2 N1         -0.0177   -0.0299   -0.0279 N.3       1 <0>        -0.5429
      3 C2         -1.3825   -0.5711   -0.0954 C.3       1 <0>         0.0242
      4 C3         -1.3197   -2.0989   -0.1558 C.3       1 <0>        -0.0022
      5 N2         -0.6310   -2.6084    1.0374 N.4       1 <0>        -0.3857
      6 C4          0.7385   -2.0788    1.0779 C.3       1 <0>        -0.0062
      7 C5          0.6928   -0.5509    1.1485 C.3       1 <0>         0.0258
      8 C6         -0.5870   -4.0759    0.9878 C.3       1 <0>         0.0483
      9 C7          0.0088   -4.6041    2.2673 C.ar      1 <0>        -0.1492
     10 C8          1.3755   -4.7910    2.3656 C.ar      1 <0>        -0.1001
     11 C9          1.9287   -5.2747    3.5363 C.ar      1 <0>        -0.1034
     12 C10         1.1124   -5.5742    4.6171 C.ar      1 <0>         0.1932
     13 C11        -0.2661   -5.3856    4.5178 C.ar      1 <0>         0.1399
     14 C12        -0.8118   -4.8949    3.3409 C.ar      1 <0>        -0.0916
     15 N3         -1.0961   -5.6859    5.6050 N.am      1 <0>        -0.6530
     16 C13        -2.1907   -4.9369    5.8443 C.2       1 <0>         0.6165
     17 O1         -2.5029   -4.0513    5.0705 O.2       1 <0>        -0.5046
     18 C14        -3.0072   -5.1897    7.0401 C.2       1 <0>        -0.0573
     19 C15        -4.1381   -4.5081    7.3924 C.2       1 <0>        -0.1028
     20 C16        -4.5966   -5.0675    8.5903 C.2       1 <0>        -0.1319
     21 C17        -3.7181   -6.0756    8.9209 C.2       1 <0>         0.0946
     22 O2         -2.7693   -6.1356    7.9686 O.3       1 <0>        -0.1451
     23 C18        -3.8031   -6.9182   10.0757 C.1       1 <0>         0.2716
     24 N4         -3.8705   -7.5865   10.9918 N.1       1 <0>        -0.3415
     25 N5          1.6700   -6.0643    5.8028 N.pl3     1 <0>        -0.6834
     26 C19         1.8424   -7.5089    6.0078 C.3       1 <0>         0.1391
     27 C20         3.3036   -7.7835    6.3773 C.3       1 <0>        -0.1359
     28 C21         3.6898   -6.9267    7.5852 C.3       1 <0>        -0.1194
     29 C22         3.5524   -5.4453    7.2267 C.3       1 <0>        -0.1367
     30 C23         2.0998   -5.1438    6.8643 C.3       1 <0>         0.1461
     31 H1          0.9903    1.8133   -0.0415 H         1 <0>         0.0837
     32 H2         -0.5651    1.7980   -0.9068 H         1 <0>         0.0835
     33 H3         -0.5367    1.7956    0.8729 H         1 <0>         0.0391
     34 H4         -1.9394   -0.2647    0.7900 H         1 <0>         0.0606
     35 H5         -1.8803   -0.1920   -0.9879 H         1 <0>         0.1237
     36 H6         -2.3315   -2.5029   -0.1916 H         1 <0>         0.1362
     37 H7         -0.7745   -2.4051   -1.0486 H         1 <0>         0.1383
     38 H8          1.2526   -2.4680    1.9567 H         1 <0>         0.1354
     39 H9          1.2732   -2.3852    0.1788 H         1 <0>         0.1372
     40 H10         1.7091   -0.1570    1.1635 H         1 <0>         0.1223
     41 H11         0.1701   -0.2441    2.0544 H         1 <0>         0.0597
     42 H12        -1.5979   -4.4659    0.8696 H         1 <0>         0.1375
     43 H13         0.0256   -4.3927    0.1438 H         1 <0>         0.1384
     44 H14         2.0125   -4.5586    1.5250 H         1 <0>         0.1346
     45 H15         2.9964   -5.4197    3.6095 H         1 <0>         0.1401
     46 H16        -1.8782   -4.7438    3.2619 H         1 <0>         0.1498
     47 H17        -0.8832   -6.4331    6.1859 H         1 <0>         0.4238
     48 H18        -4.5917   -3.6922    6.8495 H         1 <0>         0.1774
     49 H19        -5.4708   -4.7664    9.1484 H         1 <0>         0.1795
     50 H20         1.1921   -7.8435    6.8160 H         1 <0>         0.0559
     51 H21         1.5915   -8.0407    5.0900 H         1 <0>         0.0708
     52 H22         3.4240   -8.8379    6.6258 H         1 <0>         0.0729
     53 H23         3.9457   -7.5325    5.5330 H         1 <0>         0.0652
     54 H24         3.0312   -7.1605    8.4217 H         1 <0>         0.0633
     55 H25         4.7217   -7.1384    7.8655 H         1 <0>         0.0656
     56 H26         3.8500   -4.8355    8.0798 H         1 <0>         0.0723
     57 H27         4.1922   -5.2163    6.3745 H         1 <0>         0.0644
     58 H28         2.0185   -4.1157    6.5115 H         1 <0>         0.0668
     59 H29         1.4708   -5.2813    7.7439 H         1 <0>         0.0542
     60 H30        -1.1294   -2.3150    1.8641 H         1 <0>         0.4222
@<TRIPOS>BOND
     1    1    2 1
     2    1   31 1
     3    1   32 1
     4    1   33 1
     5    2    7 1
     6    2    3 1
     7    3    4 1
     8    3   34 1
     9    3   35 1
    10    4    5 1
    11    4   36 1
    12    4   37 1
    13    5    6 1
    14    5    8 1
    15    5   60 1
    16    6    7 1
    17    6   38 1
    18    6   39 1
    19    7   40 1
    20    7   41 1
    21    8    9 1
    22    8   42 1
    23    8   43 1
    24    9   14 ar
    25    9   10 ar
    26   10   11 ar
    27   10   44 1
    28   11   12 ar
    29   11   45 1
    30   12   13 ar
    31   12   25 1
    32   13   14 ar
    33   13   15 1
    34   14   46 1
    35   15   16 am
    36   15   47 1
    37   16   17 2
    38   16   18 1
    39   18   22 1
    40   18   19 2
    41   19   20 1
    42   19   48 1
    43   20   21 2
    44   20   49 1
    45   21   22 1
    46   21   23 1
    47   23   24 3
    48   25   30 1
    49   25   26 1
    50   26   27 1
    51   26   50 1
    52   26   51 1
    53   27   28 1
    54   27   52 1
    55   27   53 1
    56   28   29 1
    57   28   54 1
    58   28   55 1
    59   29   30 1
    60   29   56 1
    61   29   57 1
    62   30   58 1
    63   30   59 1
@<TRIPOS>MOLECULE
CHEMBL272738
   68    73     0     0     0
SMALL
USER_CHARGES

@<TRIPOS>ATOM
      1 C1         -9.7301  -12.5094    2.4409 C.3       1 <0>        -0.0470
      2 N1         -9.2056  -11.1690    2.7347 N.4       1 <0>        -0.3836
      3 C2         -8.2965  -10.7544    1.6588 C.3       1 <0>        -0.0235
      4 C3         -7.8386   -9.3131    1.9055 C.3       1 <0>         0.1001
      5 N2         -7.2589   -9.2324    3.2551 N.pl3     1 <0>        -0.6458
      6 C4         -8.0378   -9.7771    4.3779 C.3       1 <0>         0.1005
      7 C5         -8.4863  -11.1965    4.0145 C.3       1 <0>        -0.0233
      8 C6         -6.0017   -8.6543    3.4649 C.ar      1 <0>         0.1789
      9 C7         -5.2348   -8.2477    2.3808 C.ar      1 <0>        -0.1640
     10 C8         -3.9947   -7.6769    2.5879 C.ar      1 <0>        -0.1020
     11 C9         -3.5144   -7.5095    3.8801 C.ar      1 <0>         0.1279
     12 C10        -4.2811   -7.9165    4.9641 C.ar      1 <0>        -0.0629
     13 C11        -5.5236   -8.4820    4.7573 C.ar      1 <0>        -0.1627
     14 N3         -2.2566   -6.9305    4.0900 N.pl3     1 <0>        -0.6539
     15 C12        -1.4595   -7.3650    5.1387 C.ar      1 <0>         0.4389
     16 C13        -0.2800   -6.6887    5.4214 C.ar      1 <0>        -0.2714
     17 C14         0.5104   -7.1327    6.4745 C.ar      1 <0>         0.2660
     18 C15         0.0703   -8.2554    7.2070 C.ar      1 <0>        -0.2857
     19 C16        -1.1257   -8.8777    6.8585 C.ar      1 <0>         0.2447
     20 N4         -1.8431   -8.4160    5.8549 N.ar      1 <0>        -0.5467
     21 C17         0.8984   -8.7354    8.3246 C.2       1 <0>         0.4495
     22 O1          0.5682   -9.7005    8.9917 O.2       1 <0>        -0.4837
     23 C18         2.1439   -7.9995    8.6021 C.2       1 <0>        -0.3304
     24 C19         2.4701   -6.9151    7.8165 C.2       1 <0>         0.2490
     25 N5          1.6897   -6.5041    6.8023 N.pl3     1 <0>        -0.4346
     26 C20         2.0918   -5.3938    6.0511 C.ar      1 <0>         0.0807
     27 C21         1.3775   -4.2049    6.1277 C.ar      1 <0>        -0.1006
     28 C22         1.7787   -3.1135    5.3853 C.ar      1 <0>        -0.0945
     29 C23         2.8909   -3.1976    4.5630 C.ar      1 <0>        -0.0727
     30 C24         3.6040   -4.3798    4.4844 C.ar      1 <0>        -0.0807
     31 C25         3.2086   -5.4753    5.2317 C.ar      1 <0>        -0.0888
     32 C26         4.7640   -4.2148    3.5259 C.3       1 <0>        -0.0864
     33 C27         4.4292   -2.9550    2.6996 C.3       1 <0>        -0.1212
     34 C28         3.5237   -2.1580    3.6625 C.3       1 <0>        -0.0889
     35 C29         3.0269   -8.4158    9.7027 C.2       1 <0>         0.5888
     36 O2          4.1028   -7.8702    9.8589 O.2       1 <0>        -0.5594
     37 N6          2.6437   -9.4018   10.5379 N.am      1 <0>        -0.8440
     38 H1        -10.4114  -12.8151    3.2349 H         1 <0>         0.1251
     39 H2        -10.2643  -12.4903    1.4910 H         1 <0>         0.1248
     40 H3         -8.9036  -13.2173    2.3788 H         1 <0>         0.1216
     41 H4         -7.4286  -11.4136    1.6422 H         1 <0>         0.1322
     42 H5         -8.8154  -10.8122    0.7020 H         1 <0>         0.1401
     43 H6         -7.0866   -9.0362    1.1666 H         1 <0>         0.1258
     44 H7         -8.6928   -8.6399    1.8329 H         1 <0>         0.0867
     45 H8         -7.4175   -9.8070    5.2736 H         1 <0>         0.1266
     46 H9         -8.9122   -9.1508    4.5550 H         1 <0>         0.0866
     47 H10        -9.1451  -11.5801    4.7936 H         1 <0>         0.1406
     48 H11        -7.6126  -11.8424    3.9266 H         1 <0>         0.1326
     49 H12        -5.6082   -8.3783    1.3759 H         1 <0>         0.1254
     50 H13        -3.3981   -7.3610    1.7448 H         1 <0>         0.1290
     51 H14        -3.9073   -7.7869    5.9690 H         1 <0>         0.1388
     52 H15        -6.1220   -8.7942    5.6005 H         1 <0>         0.1256
     53 H16        -1.9429   -6.2257    3.5021 H         1 <0>         0.4216
     54 H17         0.0179   -5.8334    4.8332 H         1 <0>         0.1476
     55 H18        -1.4680   -9.7377    7.4149 H         1 <0>         0.1809
     56 H19         3.3838   -6.3774    8.0227 H         1 <0>         0.1829
     57 H20         0.5097   -4.1353    6.7667 H         1 <0>         0.1341
     58 H21         1.2232   -2.1893    5.4451 H         1 <0>         0.1350
     59 H22         3.7680   -6.3973    5.1736 H         1 <0>         0.1323
     60 H23         5.6928   -4.0694    4.0776 H         1 <0>         0.0887
     61 H24         4.8426   -5.0848    2.8740 H         1 <0>         0.0805
     62 H25         5.3337   -2.3939    2.4647 H         1 <0>         0.0834
     63 H26         3.8894   -3.2201    1.7904 H         1 <0>         0.0751
     64 H27         2.7555   -1.6234    3.1038 H         1 <0>         0.0817
     65 H28         4.1193   -1.4600    4.2509 H         1 <0>         0.0892
     66 H29         1.8199   -9.8859   10.3711 H         1 <0>         0.4127
     67 H30         3.1918   -9.6273   11.3058 H         1 <0>         0.4017
     68 H31        -9.9718  -10.5152    2.7950 H         1 <0>         0.4244
@<TRIPOS>BOND
     1    1    2 1
     2    1   38 1
     3    1   39 1
     4    1   40 1
     5    2    7 1
     6    2    3 1
     7    2   68 1
     8    3    4 1
     9    3   41 1
    10    3   42 1
    11    4    5 1
    12    4   43 1
    13    4   44 1
    14    5    6 1
    15    5    8 1
    16    6    7 1
    17    6   45 1
    18    6   46 1
    19    7   47 1
    20    7   48 1
    21    8   13 ar
    22    8    9 ar
    23    9   10 ar
    24    9   49 1
    25   10   11 ar
    26   10   50 1
    27   11   12 ar
    28   11   14 1
    29   12   13 ar
    30   12   51 1
    31   13   52 1
    32   14   15 1
    33   14   53 1
    34   15   20 ar
    35   15   16 ar
    36   16   17 ar
    37   16   54 1
    38   17   25 1
    39   17   18 ar
    40   18   19 ar
    41   18   21 1
    42   19   20 ar
    43   19   55 1
    44   21   22 2
    45   21   23 1
    46   23   24 2
    47   23   35 1
    48   24   25 1
    49   24   56 1
    50   25   26 1
    51   26   31 ar
    52   26   27 ar
    53   27   28 ar
    54   27   57 1
    55   28   29 ar
    56   28   58 1
    57   29   34 1
    58   29   30 ar
    59   30   31 ar
    60   30   32 1
    61   31   59 1
    62   32   33 1
    63   32   60 1
    64   32   61 1
    65   33   34 1
    66   33   62 1
    67   33   63 1
    68   34   64 1
    69   34   65 1
    70   35   36 2
    71   35   37 am
    72   37   66 1
    73   37   67 1
@<TRIPOS>MOLECULE
CHEMBL272738__1
   67    72     0     0     0
SMALL
USER_CHARGES

@<TRIPOS>ATOM
      1 C1         -9.5264  -12.7802    1.6048 C.3       1 <0>         0.0242
      2 N1         -8.9832  -11.4644    1.9678 N.3       1 <0>        -0.5426
      3 C2         -8.0665  -10.9694    0.9321 C.3       1 <0>         0.0380
      4 C3         -7.6651   -9.5267    1.2571 C.3       1 <0>         0.1261
      5 N2         -7.1340   -9.4871    2.6281 N.pl3     1 <0>        -0.6318
      6 C4         -7.9373  -10.0890    3.7032 C.3       1 <0>         0.1264
      7 C5         -8.3281  -11.5096    3.2818 C.3       1 <0>         0.0383
      8 C6         -5.8970   -8.8929    2.9024 C.ar      1 <0>         0.2107
      9 C7         -5.1026   -8.4306    1.8613 C.ar      1 <0>        -0.1823
     10 C8         -3.8824   -7.8439    2.1319 C.ar      1 <0>        -0.0939
     11 C9         -3.4495   -7.7161    3.4453 C.ar      1 <0>         0.0912
     12 C10        -4.2436   -8.1788    4.4864 C.ar      1 <0>        -0.0558
     13 C11        -5.4664   -8.7603    4.2161 C.ar      1 <0>        -0.1808
     14 N3         -2.2118   -7.1210    3.7198 N.pl3     1 <0>        -0.6471
     15 C12        -1.4416   -7.5792    4.7784 C.ar      1 <0>         0.4456
     16 C13        -0.2866   -6.8911    5.1265 C.ar      1 <0>        -0.2787
     17 C14         0.4769   -7.3591    6.1890 C.ar      1 <0>         0.2633
     18 C15         0.0359   -8.5171    6.8637 C.ar      1 <0>        -0.2933
     19 C16        -1.1345   -9.1490    6.4513 C.ar      1 <0>         0.2471
     20 N4         -1.8271   -8.6638    5.4415 N.ar      1 <0>        -0.5415
     21 C17         0.8357   -9.0226    7.9906 C.2       1 <0>         0.4506
     22 O1          0.5034  -10.0185    8.6096 O.2       1 <0>        -0.4869
     23 C18         2.0555   -8.2735    8.3380 C.2       1 <0>        -0.3344
     24 C19         2.3853   -7.1540    7.6048 C.2       1 <0>         0.2497
     25 N5          1.6311   -6.7204    6.5803 N.pl3     1 <0>        -0.4357
     26 C20         2.0351   -5.5748    5.8851 C.ar      1 <0>         0.0854
     27 C21         1.2940   -4.4039    5.9811 C.ar      1 <0>        -0.0997
     28 C22         1.6971   -3.2775    5.2940 C.ar      1 <0>        -0.0943
     29 C23         2.8379   -3.3087    4.5080 C.ar      1 <0>        -0.0756
     30 C24         3.5778   -4.4729    4.4103 C.ar      1 <0>        -0.0824
     31 C25         3.1803   -5.6034    5.1023 C.ar      1 <0>        -0.0895
     32 C26         4.7658   -4.2491    3.4991 C.3       1 <0>        -0.0854
     33 C27         4.4328   -2.9657    2.7090 C.3       1 <0>        -0.1211
     34 C28         3.4790   -2.2237    3.6690 C.3       1 <0>        -0.0877
     35 C29         2.9094   -8.7138    9.4521 C.2       1 <0>         0.5905
     36 O2          3.9680   -8.1538    9.6653 O.2       1 <0>        -0.5640
     37 N6          2.5188   -9.7378   10.2366 N.am      1 <0>        -0.8444
     38 H1        -10.2592  -13.0889    2.3503 H         1 <0>         0.0708
     39 H2        -10.0058  -12.7184    0.6279 H         1 <0>         0.0701
     40 H3         -8.7172  -13.5095    1.5670 H         1 <0>         0.0259
     41 H4         -7.1760  -11.5973    0.9043 H         1 <0>         0.0384
     42 H5         -8.5633  -10.9990   -0.0377 H         1 <0>         0.0854
     43 H6         -6.8983   -9.1936    0.5577 H         1 <0>         0.0862
     44 H7         -8.5382   -8.8783    1.1838 H         1 <0>         0.0699
     45 H8         -7.3506  -10.1276    4.6209 H         1 <0>         0.0871
     46 H9         -8.8366   -9.4947    3.8649 H         1 <0>         0.0697
     47 H10        -9.0145  -11.9309    4.0162 H         1 <0>         0.0860
     48 H11        -7.4339  -12.1299    3.2213 H         1 <0>         0.0389
     49 H12        -5.4392   -8.5303    0.8399 H         1 <0>         0.1249
     50 H13        -3.2645   -7.4847    1.3223 H         1 <0>         0.1216
     51 H14        -3.9066   -8.0800    5.5077 H         1 <0>         0.1316
     52 H15        -6.0862   -9.1157    5.0260 H         1 <0>         0.1249
     53 H16        -1.8932   -6.3885    3.1696 H         1 <0>         0.4178
     54 H17         0.0130   -6.0085    4.5810 H         1 <0>         0.1451
     55 H18        -1.4773  -10.0360    6.9634 H         1 <0>         0.1797
     56 H19         3.2801   -6.6067    7.8622 H         1 <0>         0.1805
     57 H20         0.4038   -4.3754    6.5920 H         1 <0>         0.1348
     58 H21         1.1207   -2.3673    5.3689 H         1 <0>         0.1344
     59 H22         3.7605   -6.5114    5.0293 H         1 <0>         0.1318
     60 H23         5.6722   -4.1065    4.0875 H         1 <0>         0.0871
     61 H24         4.8845   -5.0921    2.8184 H         1 <0>         0.0800
     62 H25         5.3328   -2.3786    2.5265 H         1 <0>         0.0819
     63 H26         3.9296   -3.2068    1.7726 H         1 <0>         0.0753
     64 H27         2.7190   -1.6835    3.1044 H         1 <0>         0.0812
     65 H28         4.0396   -1.5369    4.3032 H         1 <0>         0.0874
     66 H29         1.7112  -10.2311   10.0239 H         1 <0>         0.4134
     67 H30         3.0453   -9.9814   11.0140 H         1 <0>         0.3999
@<TRIPOS>BOND
     1    1    2 1
     2    1   38 1
     3    1   39 1
     4    1   40 1
     5    2    7 1
     6    2    3 1
     7    3    4 1
     8    3   41 1
     9    3   42 1
    10    4    5 1
    11    4   43 1
    12    4   44 1
    13    5    6 1
    14    5    8 1
    15    6    7 1
    16    6   45 1
    17    6   46 1
    18    7   47 1
    19    7   48 1
    20    8   13 ar
    21    8    9 ar
    22    9   10 ar
    23    9   49 1
    24   10   11 ar
    25   10   50 1
    26   11   12 ar
    27   11   14 1
    28   12   13 ar
    29   12   51 1
    30   13   52 1
    31   14   15 1
    32   14   53 1
    33   15   20 ar
    34   15   16 ar
    35   16   17 ar
    36   16   54 1
    37   17   25 1
    38   17   18 ar
    39   18   19 ar
    40   18   21 1
    41   19   20 ar
    42   19   55 1
    43   21   22 2
    44   21   23 1
    45   23   24 2
    46   23   35 1
    47   24   25 1
    48   24   56 1
    49   25   26 1
    50   26   31 ar
    51   26   27 ar
    52   27   28 ar
    53   27   57 1
    54   28   29 ar
    55   28   58 1
    56   29   34 1
    57   29   30 ar
    58   30   31 ar
    59   30   32 1
    60   31   59 1
    61   32   33 1
    62   32   60 1
    63   32   61 1
    64   33   34 1
    65   33   62 1
    66   33   63 1
    67   34   64 1
    68   34   65 1
    69   35   36 2
    70   35   37 am
    71   37   66 1
    72   37   67 1
@<TRIPOS>MOLECULE
CHEMBL257456
   36    39     0     0     0
SMALL
USER_CHARGES

@<TRIPOS>ATOM
      1 C1         -0.0167    1.3796    0.0096 C.ar      1 <0>        -0.1055
      2 C2          1.1684    2.0942    0.0021 C.ar      1 <0>        -0.1164
      3 C3          2.3774    1.4307   -0.0130 C.ar      1 <0>        -0.0974
      4 C4          2.4039    0.0342   -0.0208 C.ar      1 <0>        -0.0598
      5 C5          1.2039   -0.6806   -0.0131 C.ar      1 <0>        -0.0814
      6 C6          0.0021   -0.0041    0.0020 C.ar      1 <0>        -0.1155
      7 C7          3.6951   -0.6835   -0.0374 C.2       1 <0>         0.0697
      8 C8          4.6048   -0.5726   -1.1872 C.ar      1 <0>        -0.1031
      9 C9          4.2632    0.2170   -2.2899 C.ar      1 <0>        -0.0428
     10 C10         5.1280    0.3092   -3.3576 C.ar      1 <0>        -0.0654
     11 C11         6.3351   -0.3780   -3.3433 C.ar      1 <0>        -0.0537
     12 C12         6.6850   -1.1596   -2.2641 C.ar      1 <0>        -0.1490
     13 C13         5.8264   -1.2671   -1.1735 C.ar      1 <0>         0.1918
     14 N1          6.1758   -2.0494   -0.0902 N.am      1 <0>        -0.6295
     15 H1          7.0239   -2.5198   -0.1015 H         1 <0>         0.4194
     16 C14         5.3720   -2.1756    0.9791 C.2       1 <0>         0.5433
     17 O1          5.7202   -2.8760    1.9132 O.2       1 <0>        -0.5167
     18 C15         4.0852   -1.4789    1.0392 C.2       1 <0>        -0.1037
     19 C16         3.2137   -1.6194    2.2190 C.2       1 <0>         0.0656
     20 C17         2.8641   -0.6223    3.0841 C.2       1 <0>        -0.1594
     21 C18         2.0261   -1.1879    4.0575 C.2       1 <0>        -0.1989
     22 C19         1.8857   -2.5002    3.7675 C.2       1 <0>        -0.0005
     23 N2          2.6041   -2.7745    2.6407 N.pl3     1 <0>        -0.5441
     24 H2          2.6738   -3.6411    2.2106 H         1 <0>         0.4130
     25 Cl1         4.7075    1.2884   -4.7281 Cl        1 <0>        -0.0568
     26 H3         -0.9606    1.9043    0.0260 H         1 <0>         0.1249
     27 H4          1.1464    3.1740    0.0078 H         1 <0>         0.1277
     28 H5          3.3015    1.9896   -0.0192 H         1 <0>         0.1254
     29 H6          1.2172   -1.7605   -0.0194 H         1 <0>         0.1181
     30 H7         -0.9265   -0.5555    0.0079 H         1 <0>         0.1253
     31 H8          3.3251    0.7519   -2.3041 H         1 <0>         0.1483
     32 H9          7.0055   -0.2991   -4.1864 H         1 <0>         0.1460
     33 H10         7.6262   -1.6893   -2.2641 H         1 <0>         0.1465
     34 H11         3.1754    0.4105    3.0296 H         1 <0>         0.1323
     35 H12         1.5745   -0.6676    4.8891 H         1 <0>         0.1368
     36 H13         1.3001   -3.2115    4.3310 H         1 <0>         0.1653
@<TRIPOS>BOND
     1    1    6 ar
     2    1    2 ar
     3    1   26 1
     4    2    3 ar
     5    2   27 1
     6    3    4 ar
     7    3   28 1
     8    4    5 ar
     9    4    7 1
    10    5    6 ar
    11    5   29 1
    12    6   30 1
    13    7   18 2
    14    7    8 1
    15    8   13 ar
    16    8    9 ar
    17    9   10 ar
    18    9   31 1
    19   10   11 ar
    20   10   25 1
    21   11   12 ar
    22   11   32 1
    23   12   13 ar
    24   12   33 1
    25   13   14 1
    26   14   15 1
    27   14   16 am
    28   16   17 2
    29   16   18 1
    30   18   19 1
    31   19   23 1
    32   19   20 2
    33   20   21 1
    34   20   34 1
    35   21   22 2
    36   21   35 1
    37   22   23 1
    38   22   36 1
    39   23   24 1
@<TRIPOS>MOLECULE
CHEMBL429743
   57    61     0     0     0
SMALL
USER_CHARGES

@<TRIPOS>ATOM
      1 C1         -1.3300    0.1029   -1.5514 C.3       1 <0>         0.0149
      2 O1         -0.4784   -0.5556   -0.6115 O.3       1 <0>        -0.2864
      3 C2          0.8614   -0.4714   -0.8278 C.ar      1 <0>         0.1348
      4 C3          1.3296    0.2258   -1.9038 C.ar      1 <0>        -0.1364
      5 C4          2.7120    0.3129   -2.1266 C.ar      1 <0>        -0.0899
      6 C5          3.2333    1.0263   -3.2293 C.ar      1 <0>         0.2830
      7 C6          4.6077    1.0685   -3.3836 C.ar      1 <0>        -0.2641
      8 C7          5.4241    0.4194   -2.4659 C.ar      1 <0>         0.2261
      9 N1          4.9295   -0.2404   -1.4451 N.ar      1 <0>        -0.4814
     10 C8          3.6103   -0.3223   -1.2349 C.ar      1 <0>         0.1817
     11 C9          3.0978   -1.0328   -0.1368 C.ar      1 <0>        -0.2357
     12 C10         1.7485   -1.0969    0.0599 C.ar      1 <0>         0.2162
     13 O2          1.2582   -1.7806    1.1270 O.3       1 <0>        -0.2775
     14 C11         2.2108   -2.3966    1.9960 C.3       1 <0>         0.0116
     15 O3          2.4118    1.6501   -4.1095 O.3       1 <0>        -0.2128
     16 C12         2.9792    2.4005   -5.0899 C.ar      1 <0>         0.0441
     17 C13         3.5739    1.7687   -6.1861 C.ar      1 <0>        -0.1346
     18 C14         4.1500    2.4949   -7.1832 C.ar      1 <0>        -0.0847
     19 C15         4.1493    3.8952   -7.1142 C.ar      1 <0>        -0.0008
     20 C16         3.5480    4.5397   -6.0055 C.ar      1 <0>        -0.0533
     21 C17         2.9566    3.7633   -4.9949 C.ar      1 <0>        -0.0781
     22 C18         3.5472    5.9439   -5.9369 C.ar      1 <0>        -0.0644
     23 C19         4.1215    6.6778   -6.9314 C.ar      1 <0>        -0.1164
     24 C20         4.7155    6.0638   -8.0266 C.ar      1 <0>        -0.0508
     25 C21         4.7399    4.6809   -8.1354 C.ar      1 <0>        -0.1284
     26 C22         5.3730    4.0359   -9.3002 C.2       1 <0>         0.5660
     27 O4          5.2978    2.8305   -9.4432 O.2       1 <0>        -0.5113
     28 N2          6.0350    4.7820  -10.2065 N.am      1 <0>        -0.6628
     29 C23         6.7115    4.1624  -11.2625 C.ar      1 <0>         0.1396
     30 C24         7.9063    4.6939  -11.7305 C.ar      1 <0>        -0.1274
     31 C25         8.5724    4.0799  -12.7729 C.ar      1 <0>        -0.0903
     32 C26         8.0502    2.9363  -13.3514 C.ar      1 <0>        -0.0443
     33 C27         6.8597    2.4049  -12.8873 C.ar      1 <0>        -0.0915
     34 C28         6.1926    3.0114  -11.8411 C.ar      1 <0>        -0.1058
     35 Cl1         8.8898    2.1673  -14.6619 Cl        1 <0>        -0.0616
     36 H1         -1.1017    1.1686   -1.5640 H         1 <0>         0.0668
     37 H2         -1.1668   -0.3154   -2.5446 H         1 <0>         0.0673
     38 H3         -2.3709   -0.0423   -1.2625 H         1 <0>         0.1187
     39 H4          0.6394    0.7077   -2.5804 H         1 <0>         0.1725
     40 H5          5.0440    1.6035   -4.2142 H         1 <0>         0.1851
     41 H6          6.4955    0.4587   -2.5965 H         1 <0>         0.2124
     42 H7          3.7695   -1.5228    0.5525 H         1 <0>         0.1714
     43 H8          2.8029   -3.1180    1.4330 H         1 <0>         0.0694
     44 H9          2.8681   -1.6340    2.4136 H         1 <0>         0.0693
     45 H10         1.6878   -2.9077    2.8044 H         1 <0>         0.1216
     46 H11         3.5766    0.6902   -6.2425 H         1 <0>         0.1385
     47 H12         4.6062    1.9941   -8.0243 H         1 <0>         0.1838
     48 H13         2.4903    4.2409   -4.1459 H         1 <0>         0.1467
     49 H14         3.0902    6.4421   -5.0947 H         1 <0>         0.1419
     50 H15         4.1142    7.7558   -6.8670 H         1 <0>         0.1435
     51 H16         5.1629    6.6690   -8.8012 H         1 <0>         0.1368
     52 H17         6.0424    5.7487  -10.1266 H         1 <0>         0.4137
     53 H18         8.3139    5.5868  -11.2799 H         1 <0>         0.1371
     54 H19         9.5015    4.4928  -13.1372 H         1 <0>         0.1411
     55 H20         6.4541    1.5125  -13.3408 H         1 <0>         0.1395
     56 H21         5.2658    2.5937  -11.4764 H         1 <0>         0.1483
     57 H22         5.5350   -0.6797   -0.8276 H         1 <0>         0.4475
@<TRIPOS>BOND
     1    1    2 1
     2    1   36 1
     3    1   37 1
     4    1   38 1
     5    2    3 1
     6    3   12 ar
     7    3    4 ar
     8    4    5 ar
     9    4   39 1
    10    5   10 ar
    11    5    6 ar
    12    6    7 ar
    13    6   15 1
    14    7    8 ar
    15    7   40 1
    16    8    9 ar
    17    8   41 1
    18    9   10 ar
    19    9   57 1
    20   10   11 ar
    21   11   12 ar
    22   11   42 1
    23   12   13 1
    24   13   14 1
    25   14   43 1
    26   14   44 1
    27   14   45 1
    28   15   16 1
    29   16   21 ar
    30   16   17 ar
    31   17   18 ar
    32   17   46 1
    33   18   19 ar
    34   18   47 1
    35   19   25 ar
    36   19   20 ar
    37   20   21 ar
    38   20   22 ar
    39   21   48 1
    40   22   23 ar
    41   22   49 1
    42   23   24 ar
    43   23   50 1
    44   24   25 ar
    45   24   51 1
    46   25   26 1
    47   26   27 2
    48   26   28 am
    49   28   29 1
    50   28   52 1
    51   29   34 ar
    52   29   30 ar
    53   30   31 ar
    54   30   53 1
    55   31   32 ar
    56   31   54 1
    57   32   33 ar
    58   32   35 1
    59   33   34 ar
    60   33   55 1
    61   34   56 1
@<TRIPOS>MOLECULE
CHEMBL480455
   61    64     0     0     0
SMALL
USER_CHARGES

@<TRIPOS>ATOM
      1 C1         -2.0400   -1.1201   -4.5222 C.3       1 <0>         0.0204
      2 O1         -1.8262   -2.3985   -3.9205 O.3       1 <0>        -0.3059
      3 C2         -2.3063   -2.5759   -2.6607 C.ar      1 <0>         0.1212
      4 C3         -2.9626   -1.5540   -2.0367 C.ar      1 <0>        -0.1457
      5 C4         -3.4588   -1.7340   -0.7375 C.ar      1 <0>        -0.0984
      6 C5         -3.2782   -2.9733   -0.0773 C.ar      1 <0>         0.1589
      7 C6         -2.6003   -4.0080   -0.7390 C.ar      1 <0>        -0.1619
      8 C7         -2.1281   -3.8079   -2.0167 C.ar      1 <0>         0.1406
      9 O2         -1.4775   -4.8134   -2.6578 O.3       1 <0>        -0.3112
     10 C8         -1.3276   -6.0450   -1.9487 C.3       1 <0>         0.0190
     11 C9         -0.5759   -7.0494   -2.8245 C.3       1 <0>         0.0003
     12 N1          0.7671   -6.5326   -3.1199 N.4       1 <0>        -0.3877
     13 C10         1.4173   -7.4010   -4.1087 C.3       1 <0>        -0.0016
     14 C11         2.7843   -6.8225   -4.4806 C.3       1 <0>        -0.1446
     15 C12         3.6549   -6.7361   -3.2237 C.3       1 <0>         0.0968
     16 C13         2.9330   -5.8891   -2.1718 C.3       1 <0>        -0.1829
     17 C14         1.5605   -6.5022   -1.8855 C.3       1 <0>        -0.0090
     18 O3          4.9063   -6.1281   -3.5501 O.3       1 <0>        -0.5526
     19 N2         -3.7513   -3.1522    1.1653 N.ar      1 <0>        -0.4694
     20 C15        -4.3877   -2.2071    1.8079 C.ar      1 <0>         0.1717
     21 C16        -4.6123   -0.9469    1.2305 C.ar      1 <0>        -0.1990
     22 C17        -4.1429   -0.6926   -0.0675 C.ar      1 <0>         0.2801
     23 N3         -4.3419    0.5316   -0.6697 N.pl3     1 <0>        -0.6869
     24 C18        -5.5433    0.7966   -1.3349 C.ar      1 <0>         0.2297
     25 C19        -6.5916   -0.1123   -1.2661 C.ar      1 <0>        -0.1522
     26 C20        -7.7774    0.1511   -1.9231 C.ar      1 <0>        -0.0938
     27 C21        -7.9224    1.3202   -2.6507 C.ar      1 <0>         0.0631
     28 C22        -6.8782    2.2285   -2.7214 C.ar      1 <0>        -0.0268
     29 C23        -5.6919    1.9714   -2.0602 C.ar      1 <0>        -0.1444
     30 Cl1        -7.0627    3.6932   -3.6349 Cl        1 <0>        -0.0400
     31 F1         -9.0832    1.5756   -3.2929 F         1 <0>        -0.1276
     32 C24        -5.3320    0.0961    1.9785 C.2       1 <0>         0.5632
     33 O4         -5.5125    1.1895    1.4768 O.2       1 <0>        -0.5115
     34 N4         -5.7911   -0.1600    3.2195 N.am      1 <0>        -0.8475
     35 H1         -1.6088   -1.1130   -5.5233 H         1 <0>         0.1105
     36 H2         -3.1101   -0.9230   -4.5862 H         1 <0>         0.0636
     37 H3         -1.5641   -0.3491   -3.9162 H         1 <0>         0.0617
     38 H4         -3.0988   -0.6094   -2.5422 H         1 <0>         0.1528
     39 H5         -2.4536   -4.9596   -0.2497 H         1 <0>         0.1547
     40 H6         -0.7651   -5.8701   -1.0317 H         1 <0>         0.0908
     41 H7         -2.3114   -6.4437   -1.7011 H         1 <0>         0.1157
     42 H8         -0.4916   -7.9996   -2.2971 H         1 <0>         0.1525
     43 H9         -1.1211   -7.1983   -3.7565 H         1 <0>         0.1458
     44 H10         1.5476   -8.3974   -3.6866 H         1 <0>         0.1328
     45 H11         0.7949   -7.4640   -5.0013 H         1 <0>         0.1393
     46 H12         3.2662   -7.4696   -5.2134 H         1 <0>         0.1210
     47 H13         2.6551   -5.8260   -4.9031 H         1 <0>         0.0971
     48 H14         3.8268   -7.7378   -2.8298 H         1 <0>         0.0739
     49 H15         3.5213   -5.8691   -1.2544 H         1 <0>         0.1150
     50 H16         2.8069   -4.8733   -2.5463 H         1 <0>         0.0973
     51 H17         1.0439   -5.9017   -1.1367 H         1 <0>         0.1313
     52 H18         1.6878   -7.5178   -1.5107 H         1 <0>         0.1336
     53 H19         5.5092   -6.0413   -2.7991 H         1 <0>         0.3942
     54 H20        -4.7496   -2.4009    2.8068 H         1 <0>         0.1696
     55 H21        -3.6487    1.2090   -0.6321 H         1 <0>         0.4205
     56 H22        -6.4791   -1.0248   -0.6994 H         1 <0>         0.1266
     57 H23        -8.5923   -0.5556   -1.8696 H         1 <0>         0.1460
     58 H24        -4.8797    2.6815   -2.1113 H         1 <0>         0.1443
     59 H25        -5.6472   -1.0318    3.6196 H         1 <0>         0.4003
     60 H26        -6.2656    0.5275    3.7126 H         1 <0>         0.4122
     61 H27         0.6921   -5.5983   -3.4935 H         1 <0>         0.4325
@<TRIPOS>BOND
     1    1    2 1
     2    1   35 1
     3    1   36 1
     4    1   37 1
     5    2    3 1
     6    3    8 ar
     7    3    4 ar
     8    4    5 ar
     9    4   38 1
    10    5   22 ar
    11    5    6 ar
    12    6    7 ar
    13    6   19 ar
    14    7    8 ar
    15    7   39 1
    16    8    9 1
    17    9   10 1
    18   10   11 1
    19   10   40 1
    20   10   41 1
    21   11   12 1
    22   11   42 1
    23   11   43 1
    24   12   17 1
    25   12   13 1
    26   12   61 1
    27   13   14 1
    28   13   44 1
    29   13   45 1
    30   14   15 1
    31   14   46 1
    32   14   47 1
    33   15   16 1
    34   15   18 1
    35   15   48 1
    36   16   17 1
    37   16   49 1
    38   16   50 1
    39   17   51 1
    40   17   52 1
    41   18   53 1
    42   19   20 ar
    43   20   21 ar
    44   20   54 1
    45   21   22 ar
    46   21   32 1
    47   22   23 1
    48   23   24 1
    49   23   55 1
    50   24   29 ar
    51   24   25 ar
    52   25   26 ar
    53   25   56 1
    54   26   27 ar
    55   26   57 1
    56   27   28 ar
    57   27   31 1
    58   28   29 ar
    59   28   30 1
    60   29   58 1
    61   32   33 2
    62   32   34 am
    63   34   59 1
    64   34   60 1
@<TRIPOS>MOLECULE
CHEMBL480455__1
   62    65     0     0     0
SMALL
USER_CHARGES

@<TRIPOS>ATOM
      1 C1          4.8276   -1.1544    0.3865 C.3       1 <0>         0.0115
      2 O1          4.2181   -2.4469    0.3792 O.3       1 <0>        -0.2890
      3 C2          3.3852   -2.7309   -0.6575 C.ar      1 <0>         0.1442
      4 C3          3.1728   -1.7965   -1.6301 C.ar      1 <0>        -0.1259
      5 C4          2.3144   -2.0865   -2.7004 C.ar      1 <0>        -0.0796
      6 C5          1.6712   -3.3459   -2.7694 C.ar      1 <0>         0.1666
      7 C6          1.9050   -4.2893   -1.7579 C.ar      1 <0>        -0.2198
      8 C7          2.7570   -3.9822   -0.7209 C.ar      1 <0>         0.2090
      9 O2          2.9868   -4.8997    0.2541 O.3       1 <0>        -0.2942
     10 C8          2.3173   -6.1564    0.1333 C.3       1 <0>         0.0136
     11 C9          2.6966   -7.0520    1.3143 C.3       1 <0>        -0.0019
     12 N1          2.2521   -6.4255    2.5665 N.4       1 <0>        -0.3893
     13 C10         2.7825   -7.1833    3.7062 C.3       1 <0>        -0.0023
     14 C11         2.3901   -6.4890    5.0122 C.3       1 <0>        -0.1456
     15 C12         0.8633   -6.4205    5.1088 C.3       1 <0>         0.0961
     16 C13         0.3159   -5.6929    3.8775 C.3       1 <0>        -0.1837
     17 C14         0.7851   -6.4167    2.6135 C.3       1 <0>        -0.0086
     18 O3          0.4907   -5.7077    6.2899 O.3       1 <0>        -0.5505
     19 N2          0.8495   -3.6298   -3.7913 N.ar      1 <0>        -0.4563
     20 C15         0.6123   -2.7717   -4.7496 C.ar      1 <0>         0.2348
     21 C16         1.2066   -1.4995   -4.7623 C.ar      1 <0>        -0.1981
     22 C17         2.0765   -1.1374   -3.7222 C.ar      1 <0>         0.3911
     23 N3          2.6796    0.1022   -3.6971 N.pl3     1 <0>        -0.6986
     24 C18         3.8644    0.3180   -4.4082 C.ar      1 <0>         0.2021
     25 C19         4.3594   -0.6692   -5.2509 C.ar      1 <0>        -0.1521
     26 C20         5.5292   -0.4544   -5.9527 C.ar      1 <0>        -0.0947
     27 C21         6.2095    0.7439   -5.8169 C.ar      1 <0>         0.0863
     28 C22         5.7183    1.7302   -4.9767 C.ar      1 <0>        -0.0304
     29 C23         4.5445    1.5216   -4.2772 C.ar      1 <0>        -0.1247
     30 Cl1         6.5737    3.2314   -4.8079 Cl        1 <0>        -0.0211
     31 F1          7.3540    0.9515   -6.5041 F         1 <0>        -0.1177
     32 C24         0.9204   -0.5560   -5.8547 C.2       1 <0>         0.5636
     33 O4          1.4332    0.5471   -5.8557 O.2       1 <0>        -0.4797
     34 N4          0.0900   -0.9139   -6.8541 N.am      1 <0>        -0.8392
     35 H1          5.4287   -1.0311   -0.5144 H         1 <0>         0.0731
     36 H2          4.0533   -0.3878    0.4144 H         1 <0>         0.0715
     37 H3          5.4657   -1.0585    1.2650 H         1 <0>         0.1249
     38 H4          3.6643   -0.8364   -1.5751 H         1 <0>         0.1775
     39 H5          1.4221   -5.2546   -1.7950 H         1 <0>         0.1726
     40 H6          1.2394   -5.9950    0.1311 H         1 <0>         0.0976
     41 H7          2.6144   -6.6382   -0.7982 H         1 <0>         0.1224
     42 H8          2.2149   -8.0234    1.2031 H         1 <0>         0.1596
     43 H9          3.7784   -7.1835    1.3379 H         1 <0>         0.1508
     44 H10         2.3710   -8.1926    3.6939 H         1 <0>         0.1359
     45 H11         3.8689   -7.2340    3.6343 H         1 <0>         0.1417
     46 H12         2.7833   -7.0542    5.8572 H         1 <0>         0.1249
     47 H13         2.8013   -5.4797    5.0256 H         1 <0>         0.0975
     48 H14         0.4548   -7.4304    5.1469 H         1 <0>         0.0756
     49 H15        -0.7736   -5.6890    3.9114 H         1 <0>         0.1167
     50 H16         0.6841   -4.6670    3.8673 H         1 <0>         0.0966
     51 H17         0.3969   -5.9013    1.7350 H         1 <0>         0.1260
     52 H18         0.4162   -7.4423    2.6246 H         1 <0>         0.1364
     53 H19        -0.4646   -5.6260    6.4151 H         1 <0>         0.3961
     54 H20        -0.0569   -3.0486   -5.5509 H         1 <0>         0.2174
     55 H21         2.2821    0.8247   -3.1863 H         1 <0>         0.4362
     56 H22         3.8298   -1.6045   -5.3569 H         1 <0>         0.1216
     57 H23         5.9140   -1.2220   -6.6078 H         1 <0>         0.1524
     58 H24         4.1590    2.2921   -3.6260 H         1 <0>         0.1514
     59 H25        -0.3189   -1.7935   -6.8533 H         1 <0>         0.3982
     60 H26        -0.0986   -0.2920   -7.5742 H         1 <0>         0.4264
     61 H27         2.5946   -5.4773    2.6070 H         1 <0>         0.4305
     62 H28         0.4183   -4.4983   -3.8204 H         1 <0>         0.4531
@<TRIPOS>BOND
     1    1    2 1
     2    1   35 1
     3    1   36 1
     4    1   37 1
     5    2    3 1
     6    3    8 ar
     7    3    4 ar
     8    4    5 ar
     9    4   38 1
    10    5   22 ar
    11    5    6 ar
    12    6    7 ar
    13    6   19 ar
    14    7    8 ar
    15    7   39 1
    16    8    9 1
    17    9   10 1
    18   10   11 1
    19   10   40 1
    20   10   41 1
    21   11   12 1
    22   11   42 1
    23   11   43 1
    24   12   17 1
    25   12   13 1
    26   12   61 1
    27   13   14 1
    28   13   44 1
    29   13   45 1
    30   14   15 1
    31   14   46 1
    32   14   47 1
    33   15   16 1
    34   15   18 1
    35   15   48 1
    36   16   17 1
    37   16   49 1
    38   16   50 1
    39   17   51 1
    40   17   52 1
    41   18   53 1
    42   19   20 ar
    43   19   62 1
    44   20   21 ar
    45   20   54 1
    46   21   22 ar
    47   21   32 1
    48   22   23 1
    49   23   24 1
    50   23   55 1
    51   24   29 ar
    52   24   25 ar
    53   25   26 ar
    54   25   56 1
    55   26   27 ar
    56   26   57 1
    57   27   28 ar
    58   27   31 1
    59   28   29 ar
    60   28   30 1
    61   29   58 1
    62   32   33 2
    63   32   34 am
    64   34   59 1
    65   34   60 1
@<TRIPOS>MOLECULE
CHEMBL553523
   42    44     0     0     0
SMALL
USER_CHARGES

@<TRIPOS>ATOM
      1 C1          2.3687    1.5373    2.3371 C.3       1 <0>        -0.1165
      2 C2          2.3990    0.0307    2.3589 C.ar      1 <0>        -0.0422
      3 C3          3.6109   -0.6357    2.3728 C.ar      1 <0>        -0.1647
      4 C4          3.6431   -2.0178    2.3925 C.ar      1 <0>        -0.0702
      5 C5          2.4643   -2.7377    2.3987 C.ar      1 <0>        -0.1821
      6 C6          1.2457   -2.0716    2.3853 C.ar      1 <0>         0.2144
      7 C7          1.2168   -0.6827    2.3708 C.ar      1 <0>        -0.1817
      8 N1          0.0508   -2.7970    2.3911 N.pl3     1 <0>        -0.5837
      9 C8         -1.2308   -2.0965    2.5043 C.3       1 <0>         0.0956
     10 C9          0.0786   -4.1737    2.2903 C.ar      1 <0>         0.4535
     11 C10         0.0473   -4.9876    3.4475 C.ar      1 <0>        -0.1472
     12 C11        -0.0127   -4.4419    4.7357 C.ar      1 <0>        -0.1456
     13 C12        -0.0413   -5.2709    5.8207 C.ar      1 <0>         0.1209
     14 C13        -0.0108   -6.6634    5.6595 C.ar      1 <0>         0.1623
     15 C14         0.0486   -7.2248    4.4035 C.ar      1 <0>        -0.1818
     16 C15         0.0778   -6.3936    3.2768 C.ar      1 <0>         0.1791
     17 N2          0.1347   -6.8909    2.0313 N.ar      1 <0>        -0.5042
     18 C16         0.1615   -6.0873    0.9949 C.ar      1 <0>         0.3108
     19 N3          0.1297   -4.7687    1.1057 N.ar      1 <0>        -0.5307
     20 O1         -0.0397   -7.4673    6.7542 O.3       1 <0>        -0.2959
     21 C17        -0.0062   -8.8774    6.5246 C.3       1 <0>         0.0196
     22 O2         -0.0996   -4.7399    7.0712 O.3       1 <0>        -0.2988
     23 C18        -0.1277   -3.3146    7.1701 C.3       1 <0>         0.0224
     24 H1          2.3627    1.9154    3.3593 H         1 <0>         0.0724
     25 H2          3.2506    1.9109    1.8166 H         1 <0>         0.0687
     26 H3          1.4709    1.8751    1.8194 H         1 <0>         0.0668
     27 H4          4.5340   -0.0752    2.3679 H         1 <0>         0.1215
     28 H5          4.5911   -2.5352    2.4025 H         1 <0>         0.1229
     29 H6          2.4902   -3.8173    2.4137 H         1 <0>         0.1102
     30 H7          0.2708   -0.1616    2.3644 H         1 <0>         0.1265
     31 H8         -1.6360   -1.9171    1.5085 H         1 <0>         0.0604
     32 H9         -1.9294   -2.7073    3.0762 H         1 <0>         0.0679
     33 H10        -1.0807   -1.1440    3.0125 H         1 <0>         0.0842
     34 H11        -0.0359   -3.3706    4.8706 H         1 <0>         0.1489
     35 H12         0.0725   -8.2984    4.2882 H         1 <0>         0.1575
     36 H13         0.2076   -6.5210    0.0069 H         1 <0>         0.2005
     37 H14        -0.0345   -9.4018    7.4798 H         1 <0>         0.1083
     38 H15        -0.8685   -9.1684    5.9247 H         1 <0>         0.0624
     39 H16         0.9098   -9.1375    5.9943 H         1 <0>         0.0625
     40 H17         0.7739   -2.9011    6.7181 H         1 <0>         0.0594
     41 H18        -1.0045   -2.9314    6.6481 H         1 <0>         0.0579
     42 H19        -0.1739   -3.0241    8.2197 H         1 <0>         0.1075
@<TRIPOS>BOND
     1    1    2 1
     2    1   24 1
     3    1   25 1
     4    1   26 1
     5    2    7 ar
     6    2    3 ar
     7    3    4 ar
     8    3   27 1
     9    4    5 ar
    10    4   28 1
    11    5    6 ar
    12    5   29 1
    13    6    7 ar
    14    6    8 1
    15    7   30 1
    16    8    9 1
    17    8   10 1
    18    9   31 1
    19    9   32 1
    20    9   33 1
    21   10   19 ar
    22   10   11 ar
    23   11   16 ar
    24   11   12 ar
    25   12   13 ar
    26   12   34 1
    27   13   14 ar
    28   13   22 1
    29   14   15 ar
    30   14   20 1
    31   15   16 ar
    32   15   35 1
    33   16   17 ar
    34   17   18 ar
    35   18   19 ar
    36   18   36 1
    37   20   21 1
    38   21   37 1
    39   21   38 1
    40   21   39 1
    41   22   23 1
    42   23   40 1
    43   23   41 1
    44   23   42 1
@<TRIPOS>MOLECULE
CHEMBL250187
   37    39     0     0     0
SMALL
USER_CHARGES

@<TRIPOS>ATOM
      1 C1         -0.0275    1.3723    0.0396 C.ar      1 <0>        -0.0926
      2 C2          1.1576    2.0854    0.0311 C.ar      1 <0>        -0.1246
      3 C3          2.3688    1.4191    0.0050 C.ar      1 <0>        -0.0985
      4 C4          2.3989    0.0383   -0.0122 C.ar      1 <0>         0.1282
      5 C5          1.2108   -0.6808   -0.0034 C.ar      1 <0>         0.1391
      6 C6         -0.0044   -0.0083    0.0224 C.ar      1 <0>        -0.1249
      7 N1          1.2378   -2.0787   -0.0208 N.am      1 <0>        -0.6478
      8 C7          0.1863   -2.7670   -0.5078 C.2       1 <0>         0.5978
      9 O1         -0.7429   -2.1740   -1.0237 O.2       1 <0>        -0.4784
     10 C8          0.1618   -4.2301   -0.4161 C.2       1 <0>        -0.0025
     11 C9         -0.8338   -5.0462   -0.8717 C.2       1 <0>        -0.1195
     12 C10        -0.4435   -6.3619   -0.5774 C.2       1 <0>        -0.0863
     13 C11         0.7580   -6.2923    0.0371 C.2       1 <0>         0.0314
     14 O2          1.1217   -5.0065    0.1280 O.3       1 <0>        -0.1376
     15 N2          1.5451   -7.4474    0.5246 N.pl3     1 <0>         0.0650
     16 O3          1.1201   -8.5706    0.3850 O.2       1 <0>        -0.1102
     17 O4          2.6128   -7.2675    1.0624 O.3       1 <0>        -0.1187
     18 N3          3.5863   -0.6140   -0.0383 N.pl3     1 <0>        -0.5591
     19 C12         4.1743   -0.9261   -1.2140 C.2       1 <0>         0.1155
     20 C13         4.3954   -2.1696   -1.5597 C.2       1 <0>        -0.1660
     21 C14         3.9377   -3.2912   -0.7370 C.2       1 <0>        -0.1036
     22 C15         3.9545   -3.3123    0.5633 C.2       1 <0>        -0.1290
     23 C16         4.4347   -2.2183    1.4098 C.2       1 <0>        -0.1638
     24 C17         4.2070   -0.9593    1.1111 C.2       1 <0>         0.1064
     25 H1         -0.9718    1.8957    0.0641 H         1 <0>         0.1322
     26 H2          1.1368    3.1651    0.0446 H         1 <0>         0.1298
     27 H3          3.2923    1.9789   -0.0022 H         1 <0>         0.1316
     28 H4         -0.9301   -0.5645    0.0293 H         1 <0>         0.1476
     29 H5          2.0132   -2.5531    0.3176 H         1 <0>         0.4192
     30 H6         -1.7453   -4.7387   -1.3628 H         1 <0>         0.1916
     31 H7         -0.9990   -7.2609   -0.8003 H         1 <0>         0.1925
     32 H8          4.4685   -0.1318   -1.8841 H         1 <0>         0.1179
     33 H9          4.9292   -2.3734   -2.4761 H         1 <0>         0.1321
     34 H10         3.5583   -4.1642   -1.2472 H         1 <0>         0.1096
     35 H11         3.5880   -4.2016    1.0544 H         1 <0>         0.1205
     36 H12         4.9927   -2.4520    2.3044 H         1 <0>         0.1346
     37 H13         4.5202   -0.1845    1.7951 H         1 <0>         0.1205
@<TRIPOS>BOND
     1    1    6 ar
     2    1    2 ar
     3    1   25 1
     4    2    3 ar
     5    2   26 1
     6    3    4 ar
     7    3   27 1
     8    4    5 ar
     9    4   18 1
    10    5    6 ar
    11    5    7 1
    12    6   28 1
    13    7    8 am
    14    7   29 1
    15    8    9 2
    16    8   10 1
    17   10   14 1
    18   10   11 2
    19   11   12 1
    20   11   30 1
    21   12   13 2
    22   12   31 1
    23   13   14 1
    24   13   15 1
    25   15   16 2
    26   15   17 1
    27   18   24 1
    28   18   19 1
    29   19   20 2
    30   19   32 1
    31   20   21 1
    32   20   33 1
    33   21   22 2
    34   21   34 1
    35   22   23 1
    36   22   35 1
    37   23   24 2
    38   23   36 1
    39   24   37 1
@<TRIPOS>MOLECULE
CHEMBL575925
   56    60     0     0     0
SMALL
USER_CHARGES

@<TRIPOS>ATOM
      1 C1         -0.1121    3.7093   -2.7180 C.3       1 <0>        -0.1418
      2 C2         -0.4643    2.3327   -2.1507 C.3       1 <0>         0.0023
      3 C3         -0.1527    2.3033   -0.6531 C.3       1 <0>        -0.1418
      4 C4         -1.9537    2.0577   -2.3673 C.3       1 <0>        -0.1480
      5 C5          0.3490    1.2766   -2.8539 C.2       1 <0>         0.0913
      6 C6          1.6912    1.1983   -2.8742 C.2       1 <0>        -0.2776
      7 C7          2.0530    0.0667   -3.6392 C.2       1 <0>         0.3493
      8 N1          0.9523   -0.5043   -4.0570 N.2       1 <0>        -0.3562
      9 O1         -0.1412    0.2480   -3.5633 O.3       1 <0>        -0.0646
     10 N2          3.3529   -0.3648   -3.9027 N.am      1 <0>        -0.6401
     11 C8          4.4034    0.3201   -3.4088 C.2       1 <0>         0.7155
     12 O2          4.2179    1.3141   -2.7337 O.2       1 <0>        -0.5405
     13 N3          5.6595   -0.0969   -3.6634 N.am      1 <0>        -0.6721
     14 C9          6.7521    0.6673   -3.2330 C.ar      1 <0>         0.1409
     15 C10         6.6859    1.3569   -2.0295 C.ar      1 <0>        -0.0970
     16 C11         7.7622    2.1103   -1.6055 C.ar      1 <0>        -0.1001
     17 C12         8.9114    2.1780   -2.3824 C.ar      1 <0>         0.1338
     18 C13         8.9777    1.4879   -3.5857 C.ar      1 <0>        -0.1211
     19 C14         7.9032    0.7304   -4.0070 C.ar      1 <0>        -0.1202
     20 N4         10.0030    2.9425   -1.9526 N.am      1 <0>        -0.6562
     21 C15        10.2940    3.0229   -0.6391 C.2       1 <0>         0.6121
     22 O3          9.5607    2.5012    0.1794 O.2       1 <0>        -0.5140
     23 C16        11.4998    3.7422   -0.1947 C.2       1 <0>        -0.0301
     24 C17        11.9134    3.8948    1.0917 C.2       1 <0>         0.0591
     25 N5         13.0845    4.6310    1.0697 N.pl3     1 <0>        -0.4321
     26 C18        13.9911    5.1201    2.0203 C.ar      1 <0>         0.0864
     27 C19        13.9143    4.9554    3.4131 C.ar      1 <0>        -0.0892
     28 C20        14.8754    5.4886    4.2387 C.ar      1 <0>        -0.0927
     29 C21        15.9462    6.2024    3.7272 C.ar      1 <0>        -0.0918
     30 C22        16.0463    6.3797    2.3586 C.ar      1 <0>        -0.0518
     31 C23        15.0836    5.8454    1.5337 C.ar      1 <0>        -0.1231
     32 S1         14.8334    5.8355   -0.2247 S.3       1 <0>         0.1655
     33 C24        13.3263    4.8922   -0.2500 C.2       1 <0>         0.1935
     34 N6         12.4013    4.3672   -0.9976 N.2       1 <0>        -0.4119
     35 H1          0.9490    3.9052   -2.5637 H         1 <0>         0.0662
     36 H2         -0.3341    3.7303   -3.7849 H         1 <0>         0.0617
     37 H3         -0.7003    4.4732   -2.2094 H         1 <0>         0.0734
     38 H4         -0.7410    3.0671   -0.1445 H         1 <0>         0.0734
     39 H5         -0.4036    1.3225   -0.2490 H         1 <0>         0.0618
     40 H6          0.9083    2.4992   -0.4988 H         1 <0>         0.0662
     41 H7         -2.1757    2.0786   -3.4343 H         1 <0>         0.0640
     42 H8         -2.2046    1.0769   -1.9632 H         1 <0>         0.0640
     43 H9         -2.5419    2.8215   -1.8588 H         1 <0>         0.0695
     44 H10         2.3738    1.8814   -2.3905 H         1 <0>         0.1837
     45 H11         3.5008   -1.1578   -4.4413 H         1 <0>         0.4196
     46 H12         5.8071   -0.9261   -4.1447 H         1 <0>         0.4117
     47 H13         5.7922    1.3042   -1.4254 H         1 <0>         0.1452
     48 H14         7.7104    2.6472   -0.6699 H         1 <0>         0.1445
     49 H15         9.8712    1.5409   -4.1901 H         1 <0>         0.1336
     50 H16         7.9564    0.1902   -4.9407 H         1 <0>         0.1323
     51 H17        10.5498    3.4143   -2.6002 H         1 <0>         0.4208
     52 H18        11.4175    3.5109    1.9710 H         1 <0>         0.1982
     53 H19        13.0901    4.4036    3.8405 H         1 <0>         0.1353
     54 H20        14.7936    5.3485    5.3064 H         1 <0>         0.1428
     55 H21        16.6935    6.6159    4.3883 H         1 <0>         0.1480
     56 H22        16.8740    6.9337    1.9410 H         1 <0>         0.1485
@<TRIPOS>BOND
     1    1    2 1
     2    1   35 1
     3    1   36 1
     4    1   37 1
     5    2    3 1
     6    2    4 1
     7    2    5 1
     8    3   38 1
     9    3   39 1
    10    3   40 1
    11    4   41 1
    12    4   42 1
    13    4   43 1
    14    5    9 1
    15    5    6 2
    16    6    7 1
    17    6   44 1
    18    7    8 2
    19    7   10 1
    20    8    9 1
    21   10   11 am
    22   10   45 1
    23   11   12 2
    24   11   13 am
    25   13   14 1
    26   13   46 1
    27   14   19 ar
    28   14   15 ar
    29   15   16 ar
    30   15   47 1
    31   16   17 ar
    32   16   48 1
    33   17   18 ar
    34   17   20 1
    35   18   19 ar
    36   18   49 1
    37   19   50 1
    38   20   21 am
    39   20   51 1
    40   21   22 2
    41   21   23 1
    42   23   34 1
    43   23   24 2
    44   24   25 1
    45   24   52 1
    46   25   33 1
    47   25   26 1
    48   26   31 ar
    49   26   27 ar
    50   27   28 ar
    51   27   53 1
    52   28   29 ar
    53   28   54 1
    54   29   30 ar
    55   29   55 1
    56   30   31 ar
    57   30   56 1
    58   31   32 1
    59   32   33 1
    60   33   34 2
@<TRIPOS>MOLECULE
CHEMBL1336
   48    50     0     0     0
SMALL
USER_CHARGES

@<TRIPOS>ATOM
      1 C1         -1.0955   -5.0083   -6.9234 C.3       1 <0>         0.0847
      2 N1         -1.5520   -4.3038   -5.7228 N.am      1 <0>        -0.7137
      3 C2         -1.8827   -5.0004   -4.6175 C.2       1 <0>         0.5696
      4 O1         -1.8023   -6.2129   -4.6168 O.2       1 <0>        -0.5284
      5 C3         -2.3445   -4.2878   -3.4031 C.ar      1 <0>         0.1129
      6 C4         -2.6788   -5.0128   -2.2640 C.ar      1 <0>        -0.1883
      7 C5         -3.1110   -4.3279   -1.1310 C.ar      1 <0>         0.1595
      8 C6         -3.1903   -2.9389   -1.1877 C.ar      1 <0>        -0.1766
      9 C7         -2.8404   -2.2885   -2.3571 C.ar      1 <0>         0.1349
     10 N2         -2.4302   -2.9626   -3.4105 N.ar      1 <0>        -0.4815
     11 O2         -3.4471   -4.9979    0.0005 O.3       1 <0>        -0.2437
     12 C8         -3.4462   -6.3570   -0.0383 C.ar      1 <0>         0.0568
     13 C9         -2.2447   -7.0505   -0.0178 C.ar      1 <0>        -0.1074
     14 C10        -2.2431   -8.4307   -0.0577 C.ar      1 <0>        -0.1009
     15 C11        -3.4442   -9.1246   -0.1179 C.ar      1 <0>         0.1671
     16 C12        -4.6464   -8.4301   -0.1379 C.ar      1 <0>        -0.1272
     17 C13        -4.6469   -7.0500   -0.0928 C.ar      1 <0>        -0.0940
     18 N3         -3.4432  -10.5252   -0.1588 N.am      1 <0>        -0.6776
     19 C14        -2.5108  -11.2187    0.5239 C.2       1 <0>         0.7077
     20 O3         -1.6217  -10.6297    1.1080 O.2       1 <0>        -0.5493
     21 N4         -2.5639  -12.5649    0.5593 N.am      1 <0>        -0.6795
     22 C15        -1.6655  -13.2800    1.3600 C.ar      1 <0>         0.1700
     23 C16        -1.2529  -12.7583    2.5792 C.ar      1 <0>        -0.0742
     24 C17        -0.3670  -13.4659    3.3674 C.ar      1 <0>        -0.0871
     25 C18         0.1097  -14.6941    2.9434 C.ar      1 <0>        -0.0077
     26 C19        -0.2993  -15.2159    1.7290 C.ar      1 <0>        -0.1564
     27 C20        -1.1898  -14.5147    0.9394 C.ar      1 <0>        -0.0879
     28 C21         0.2222  -16.5533    1.2702 C.3       1 <0>         0.5112
     29 F1         -0.3299  -16.8663    0.0234 F         1 <0>        -0.1743
     30 F2          1.6160  -16.4983    1.1626 F         1 <0>        -0.1671
     31 F3         -0.1354  -17.5367    2.1987 F         1 <0>        -0.1677
     32 Cl1         1.2234  -15.5812    3.9366 Cl        1 <0>        -0.0394
     33 H1         -0.8760   -4.2843   -7.7081 H         1 <0>         0.0803
     34 H2         -0.1948   -5.5764   -6.6909 H         1 <0>         0.0631
     35 H3         -1.8761   -5.6883   -7.2645 H         1 <0>         0.0629
     36 H4         -1.6162   -3.3359   -5.7233 H         1 <0>         0.4141
     37 H5         -2.6047   -6.0902   -2.2584 H         1 <0>         0.1546
     38 H6         -3.5217   -2.3755   -0.3280 H         1 <0>         0.1523
     39 H7         -2.9005   -1.2112   -2.4052 H         1 <0>         0.1747
     40 H8         -1.3104   -6.5106    0.0290 H         1 <0>         0.1364
     41 H9         -1.3078   -8.9704   -0.0424 H         1 <0>         0.1514
     42 H10        -5.5809   -8.9693   -0.1851 H         1 <0>         0.1386
     43 H11        -5.5820   -6.5098   -0.1039 H         1 <0>         0.1400
     44 H12        -4.1137  -10.9957   -0.6785 H         1 <0>         0.4131
     45 H13        -3.2246  -13.0383    0.0299 H         1 <0>         0.4146
     46 H14        -1.6244  -11.7997    2.9103 H         1 <0>         0.1546
     47 H15        -0.0456  -13.0604    4.3154 H         1 <0>         0.1524
     48 H16        -1.5123  -14.9245   -0.0064 H         1 <0>         0.1525
@<TRIPOS>BOND
     1    1    2 1
     2    1   33 1
     3    1   34 1
     4    1   35 1
     5    2    3 am
     6    2   36 1
     7    3    4 2
     8    3    5 1
     9    5   10 ar
    10    5    6 ar
    11    6    7 ar
    12    6   37 1
    13    7    8 ar
    14    7   11 1
    15    8    9 ar
    16    8   38 1
    17    9   10 ar
    18    9   39 1
    19   11   12 1
    20   12   17 ar
    21   12   13 ar
    22   13   14 ar
    23   13   40 1
    24   14   15 ar
    25   14   41 1
    26   15   16 ar
    27   15   18 1
    28   16   17 ar
    29   16   42 1
    30   17   43 1
    31   18   19 am
    32   18   44 1
    33   19   20 2
    34   19   21 am
    35   21   22 1
    36   21   45 1
    37   22   27 ar
    38   22   23 ar
    39   23   24 ar
    40   23   46 1
    41   24   25 ar
    42   24   47 1
    43   25   26 ar
    44   25   32 1
    45   26   27 ar
    46   26   28 1
    47   27   48 1
    48   28   29 1
    49   28   30 1
    50   28   31 1
@<TRIPOS>MOLECULE
CHEMBL272117
   63    67     0     0     0
SMALL
USER_CHARGES

@<TRIPOS>ATOM
      1 C1          0.5214   -1.0823   -2.8333 C.3       1 <0>        -0.0470
      2 N1          0.2727   -1.2595   -1.3964 N.4       1 <0>        -0.3839
      3 C2          1.1075   -2.3555   -0.8885 C.3       1 <0>        -0.0233
      4 C3          0.9348   -2.4663    0.6299 C.3       1 <0>         0.0992
      5 N2         -0.4990   -2.6071    0.9272 N.pl3     1 <0>        -0.6453
      6 C4         -1.4304   -1.6425    0.3222 C.3       1 <0>         0.1001
      7 C5         -1.1462   -1.5706   -1.1818 C.3       1 <0>        -0.0229
      8 C6         -0.9638   -3.6299    1.7615 C.ar      1 <0>         0.1837
      9 C7         -0.0834   -4.5941    2.2347 C.ar      1 <0>        -0.1641
     10 C8         -0.5419   -5.6030    3.0583 C.ar      1 <0>        -0.0596
     11 C9         -1.8835   -5.6538    3.4131 C.ar      1 <0>         0.1257
     12 C10        -2.7639   -4.6897    2.9400 C.ar      1 <0>        -0.0944
     13 C11        -2.3044   -3.6775    2.1211 C.ar      1 <0>        -0.1635
     14 N3         -2.3489   -6.6779    4.2480 N.pl3     1 <0>        -0.6275
     15 C12        -1.5404   -7.1701    5.2533 C.ar      1 <0>         0.6107
     16 N4         -0.3750   -6.5753    5.4848 N.ar      1 <0>        -0.5746
     17 C13         0.4340   -7.0086    6.4355 C.ar      1 <0>         0.2835
     18 C14         0.0367   -8.1100    7.1955 C.ar      1 <0>        -0.3386
     19 C15         0.8742   -8.6573    8.2726 C.2       1 <0>         0.4531
     20 O1          1.9563   -8.1692    8.5483 O.2       1 <0>        -0.4821
     21 C16         0.3461   -9.8225    9.0045 C.2       1 <0>        -0.3280
     22 C17        -0.8841  -10.3304    8.6478 C.2       1 <0>         0.2493
     23 N5         -1.6190   -9.8011    7.6567 N.pl3     1 <0>        -0.4649
     24 C18        -1.2056   -8.7184    6.9246 C.ar      1 <0>         0.4687
     25 N6         -1.9586   -8.2136    5.9532 N.ar      1 <0>        -0.5971
     26 C19        -2.9165  -10.4056    7.3448 C.3       1 <0>         0.1112
     27 C20        -3.8136  -10.4083    8.5998 C.3       1 <0>        -0.1394
     28 C21        -4.5855  -11.7483    8.5121 C.3       1 <0>        -0.1224
     29 C22        -3.5169  -12.7225    7.9572 C.3       1 <0>        -0.1290
     30 C23        -2.7279  -11.8770    6.9362 C.3       1 <0>        -0.1390
     31 C24         1.1196  -10.4333   10.0970 C.2       1 <0>         0.5890
     32 O2          0.6337  -11.3314   10.7580 O.2       1 <0>        -0.5579
     33 N7          2.3664   -9.9976   10.3654 N.am      1 <0>        -0.8435
     34 H1         -0.0918   -0.2636   -3.2100 H         1 <0>         0.1250
     35 H2          1.5744   -0.8512   -2.9940 H         1 <0>         0.1251
     36 H3          0.2661   -2.0006   -3.3622 H         1 <0>         0.1214
     37 H4          0.8039   -3.2912   -1.3581 H         1 <0>         0.1322
     38 H5          2.1530   -2.1542   -1.1217 H         1 <0>         0.1408
     39 H6          1.4726   -3.3405    0.9969 H         1 <0>         0.1272
     40 H7          1.3216   -1.5669    1.1091 H         1 <0>         0.0879
     41 H8         -2.4565   -1.9721    0.4856 H         1 <0>         0.1260
     42 H9         -1.2825   -0.6600    0.7703 H         1 <0>         0.0873
     43 H10        -1.7612   -0.7909   -1.6311 H         1 <0>         0.1405
     44 H11        -1.3816   -2.5300   -1.6424 H         1 <0>         0.1321
     45 H12         0.9599   -4.5550    1.9582 H         1 <0>         0.1269
     46 H13         0.1427   -6.3528    3.4263 H         1 <0>         0.1392
     47 H14        -3.8073   -4.7293    3.2160 H         1 <0>         0.1318
     48 H15        -2.9883   -2.9254    1.7564 H         1 <0>         0.1278
     49 H16        -3.2391   -7.0413    4.1198 H         1 <0>         0.4270
     50 H17         1.3805   -6.5222    6.6200 H         1 <0>         0.1918
     51 H18        -1.2705  -11.1845    9.1841 H         1 <0>         0.1877
     52 H19        -3.4013   -9.8537    6.5396 H         1 <0>         0.1296
     53 H20        -3.2052  -10.3769    9.5037 H         1 <0>         0.0789
     54 H21        -4.5061   -9.5668    8.5756 H         1 <0>         0.0813
     55 H22        -4.9220  -12.0655    9.4992 H         1 <0>         0.0797
     56 H23        -5.4268  -11.6651    7.8242 H         1 <0>         0.0754
     57 H24        -2.8606  -13.0649    8.7573 H         1 <0>         0.0743
     58 H25        -3.9928  -13.5700    7.4639 H         1 <0>         0.0777
     59 H26        -3.1219  -12.0394    5.9330 H         1 <0>         0.0844
     60 H27        -1.6709  -12.1414    6.9700 H         1 <0>         0.0749
     61 H28         2.7266   -9.2340    9.8878 H         1 <0>         0.4127
     62 H29         2.9036  -10.4477   11.0360 H         1 <0>         0.4024
     63 H30         0.5066   -0.4079   -0.9084 H         1 <0>         0.4249
@<TRIPOS>BOND
     1    1    2 1
     2    1   34 1
     3    1   35 1
     4    1   36 1
     5    2    7 1
     6    2    3 1
     7    2   63 1
     8    3    4 1
     9    3   37 1
    10    3   38 1
    11    4    5 1
    12    4   39 1
    13    4   40 1
    14    5    6 1
    15    5    8 1
    16    6    7 1
    17    6   41 1
    18    6   42 1
    19    7   43 1
    20    7   44 1
    21    8   13 ar
    22    8    9 ar
    23    9   10 ar
    24    9   45 1
    25   10   11 ar
    26   10   46 1
    27   11   12 ar
    28   11   14 1
    29   12   13 ar
    30   12   47 1
    31   13   48 1
    32   14   15 1
    33   14   49 1
    34   15   25 ar
    35   15   16 ar
    36   16   17 ar
    37   17   18 ar
    38   17   50 1
    39   18   24 ar
    40   18   19 1
    41   19   20 2
    42   19   21 1
    43   21   22 2
    44   21   31 1
    45   22   23 1
    46   22   51 1
    47   23   24 1
    48   23   26 1
    49   24   25 ar
    50   26   30 1
    51   26   27 1
    52   26   52 1
    53   27   28 1
    54   27   53 1
    55   27   54 1
    56   28   29 1
    57   28   55 1
    58   28   56 1
    59   29   30 1
    60   29   57 1
    61   29   58 1
    62   30   59 1
    63   30   60 1
    64   31   32 2
    65   31   33 am
    66   33   61 1
    67   33   62 1
@<TRIPOS>MOLECULE
CHEMBL272117__1
   62    66     0     0     0
SMALL
USER_CHARGES

@<TRIPOS>ATOM
      1 C1          0.6685   -0.9571   -2.8937 C.3       1 <0>         0.0242
      2 N1          0.3593   -1.2490   -1.4876 N.3       1 <0>        -0.5427
      3 C2          1.2153   -2.3262   -0.9730 C.3       1 <0>         0.0382
      4 C3          0.9905   -2.4764    0.5353 C.3       1 <0>         0.1252
      5 N2         -0.4490   -2.6565    0.7775 N.pl3     1 <0>        -0.6307
      6 C4         -1.3819   -1.6910    0.1767 C.3       1 <0>         0.1259
      7 C5         -1.0636   -1.5717   -1.3175 C.3       1 <0>         0.0386
      8 C6         -0.9187   -3.7185    1.5584 C.ar      1 <0>         0.2149
      9 C7         -0.0336   -4.6812    2.0259 C.ar      1 <0>        -0.1818
     10 C8         -0.4969   -5.7287    2.7967 C.ar      1 <0>        -0.0524
     11 C9         -1.8481   -5.8200    3.1042 C.ar      1 <0>         0.0885
     12 C10        -2.7331   -4.8575    2.6368 C.ar      1 <0>        -0.0866
     13 C11        -2.2690   -3.8067    1.8707 C.ar      1 <0>        -0.1819
     14 N3         -2.3182   -6.8834    3.8855 N.pl3     1 <0>        -0.6191
     15 C12        -1.5327   -7.3955    4.8990 C.ar      1 <0>         0.6128
     16 N4         -0.3888   -6.7858    5.1909 N.ar      1 <0>        -0.5680
     17 C13         0.3978   -7.2370    6.1521 C.ar      1 <0>         0.2838
     18 C14        -0.0002   -8.3736    6.8581 C.ar      1 <0>        -0.3458
     19 C15         0.8131   -8.9427    7.9423 C.2       1 <0>         0.4544
     20 O1          1.8747   -8.4430    8.2716 O.2       1 <0>        -0.4861
     21 C16         0.2867  -10.1446    8.6136 C.2       1 <0>        -0.3332
     22 C17        -0.9198  -10.6642    8.1977 C.2       1 <0>         0.2508
     23 N5         -1.6331  -10.1140    7.2022 N.pl3     1 <0>        -0.4656
     24 C18        -1.2195   -8.9970    6.5239 C.ar      1 <0>         0.4668
     25 N6         -1.9509   -8.4723    5.5465 N.ar      1 <0>        -0.6024
     26 C19        -2.9062  -10.7331    6.8253 C.3       1 <0>         0.1114
     27 C20        -3.8438  -10.8002    8.0485 C.3       1 <0>        -0.1391
     28 C21        -4.5831  -12.1517    7.8867 C.3       1 <0>        -0.1221
     29 C22        -3.4760  -13.0828    7.3333 C.3       1 <0>        -0.1283
     30 C23        -2.6724  -12.1844    6.3705 C.3       1 <0>        -0.1391
     31 C24         1.0369  -10.7791    9.7088 C.2       1 <0>         0.5908
     32 O2          0.5492  -11.7107   10.3203 O.2       1 <0>        -0.5625
     33 N7          2.2646  -10.3281   10.0344 N.am      1 <0>        -0.8442
     34 H1          0.0748   -0.1060   -3.2272 H         1 <0>         0.0708
     35 H2          1.7283   -0.7214   -2.9914 H         1 <0>         0.0706
     36 H3          0.4319   -1.8273   -3.5060 H         1 <0>         0.0258
     37 H4          0.9634   -3.2613   -1.4732 H         1 <0>         0.0384
     38 H5          2.2606   -2.0821   -1.1624 H         1 <0>         0.0862
     39 H6          1.5351   -3.3465    0.9019 H         1 <0>         0.0877
     40 H7          1.3388   -1.5800    1.0485 H         1 <0>         0.0711
     41 H8         -2.4057   -2.0418    0.3062 H         1 <0>         0.0864
     42 H9         -1.2616   -0.7191    0.6554 H         1 <0>         0.0706
     43 H10        -1.6711   -0.7804   -1.7568 H         1 <0>         0.0860
     44 H11        -1.2838   -2.5174   -1.8129 H         1 <0>         0.0383
     45 H12         1.0171   -4.6106    1.7862 H         1 <0>         0.1264
     46 H13         0.1914   -6.4774    3.1603 H         1 <0>         0.1319
     47 H14        -3.7839   -4.9285    2.8759 H         1 <0>         0.1244
     48 H15        -2.9568   -3.0559    1.5105 H         1 <0>         0.1270
     49 H16        -3.1957   -7.2599    3.7145 H         1 <0>         0.4234
     50 H17         1.3270   -6.7385    6.3856 H         1 <0>         0.1902
     51 H18        -1.3050  -11.5451    8.6896 H         1 <0>         0.1852
     52 H19        -3.3762  -10.1620    6.0246 H         1 <0>         0.1303
     53 H20        -3.2662  -10.7896    8.9729 H         1 <0>         0.0781
     54 H21        -4.5532   -9.9729    8.0313 H         1 <0>         0.0812
     55 H22        -4.9449  -12.5118    8.8498 H         1 <0>         0.0780
     56 H23        -5.4030  -12.0606    7.1743 H         1 <0>         0.0750
     57 H24        -2.8390  -13.4408    8.1421 H         1 <0>         0.0733
     58 H25        -3.9169  -13.9212    6.7941 H         1 <0>         0.0762
     59 H26        -3.0297  -12.3179    5.3494 H         1 <0>         0.0842
     60 H27        -1.6116  -12.4280    6.4302 H         1 <0>         0.0748
     61 H28         2.6236   -9.5403    9.5970 H         1 <0>         0.4134
     62 H29         2.7890  -10.7914   10.7061 H         1 <0>         0.4005
@<TRIPOS>BOND
     1    1    2 1
     2    1   34 1
     3    1   35 1
     4    1   36 1
     5    2    7 1
     6    2    3 1
     7    3    4 1
     8    3   37 1
     9    3   38 1
    10    4    5 1
    11    4   39 1
    12    4   40 1
    13    5    6 1
    14    5    8 1
    15    6    7 1
    16    6   41 1
    17    6   42 1
    18    7   43 1
    19    7   44 1
    20    8   13 ar
    21    8    9 ar
    22    9   10 ar
    23    9   45 1
    24   10   11 ar
    25   10   46 1
    26   11   12 ar
    27   11   14 1
    28   12   13 ar
    29   12   47 1
    30   13   48 1
    31   14   15 1
    32   14   49 1
    33   15   25 ar
    34   15   16 ar
    35   16   17 ar
    36   17   18 ar
    37   17   50 1
    38   18   24 ar
    39   18   19 1
    40   19   20 2
    41   19   21 1
    42   21   22 2
    43   21   31 1
    44   22   23 1
    45   22   51 1
    46   23   24 1
    47   23   26 1
    48   24   25 ar
    49   26   30 1
    50   26   27 1
    51   26   52 1
    52   27   28 1
    53   27   53 1
    54   27   54 1
    55   28   29 1
    56   28   55 1
    57   28   56 1
    58   29   30 1
    59   29   57 1
    60   29   58 1
    61   30   59 1
    62   30   60 1
    63   31   32 2
    64   31   33 am
    65   33   61 1
    66   33   62 1
@<TRIPOS>MOLECULE
CHEMBL272332
   66    70     0     0     0
SMALL
USER_CHARGES

@<TRIPOS>ATOM
      1 C1          0.5214   -1.0823   -2.8333 C.3       1 <0>        -0.0470
      2 N1          0.2727   -1.2595   -1.3964 N.4       1 <0>        -0.3839
      3 C2          1.1075   -2.3555   -0.8885 C.3       1 <0>        -0.0233
      4 C3          0.9348   -2.4663    0.6299 C.3       1 <0>         0.0992
      5 N2         -0.4990   -2.6071    0.9272 N.pl3     1 <0>        -0.6453
      6 C4         -1.4304   -1.6425    0.3222 C.3       1 <0>         0.1001
      7 C5         -1.1462   -1.5706   -1.1818 C.3       1 <0>        -0.0229
      8 C6         -0.9638   -3.6299    1.7615 C.ar      1 <0>         0.1836
      9 C7         -0.0834   -4.5941    2.2347 C.ar      1 <0>        -0.1640
     10 C8         -0.5419   -5.6030    3.0583 C.ar      1 <0>        -0.0596
     11 C9         -1.8835   -5.6538    3.4131 C.ar      1 <0>         0.1258
     12 C10        -2.7639   -4.6897    2.9400 C.ar      1 <0>        -0.0944
     13 C11        -2.3044   -3.6775    2.1211 C.ar      1 <0>        -0.1634
     14 N3         -2.3489   -6.6779    4.2480 N.pl3     1 <0>        -0.6275
     15 C12        -1.5404   -7.1701    5.2533 C.ar      1 <0>         0.6106
     16 N4         -0.3750   -6.5753    5.4848 N.ar      1 <0>        -0.5746
     17 C13         0.4340   -7.0086    6.4355 C.ar      1 <0>         0.2833
     18 C14         0.0367   -8.1100    7.1955 C.ar      1 <0>        -0.3383
     19 C15         0.8742   -8.6573    8.2726 C.2       1 <0>         0.4532
     20 O1          1.9563   -8.1692    8.5483 O.2       1 <0>        -0.4823
     21 C16         0.3461   -9.8225    9.0045 C.2       1 <0>        -0.3282
     22 C17        -0.8841  -10.3304    8.6478 C.2       1 <0>         0.2497
     23 N5         -1.6190   -9.8011    7.6567 N.pl3     1 <0>        -0.4665
     24 C18        -1.2056   -8.7184    6.9246 C.ar      1 <0>         0.4689
     25 N6         -1.9586   -8.2136    5.9532 N.ar      1 <0>        -0.5967
     26 C19        -2.9165  -10.4056    7.3448 C.3       1 <0>         0.1171
     27 C20        -3.8202  -10.3378    8.5776 C.3       1 <0>        -0.1341
     28 C21        -5.1753  -10.9692    8.2518 C.3       1 <0>        -0.1139
     29 C22        -4.9729  -12.4308    7.8475 C.3       1 <0>        -0.1272
     30 C23        -4.0692  -12.4986    6.6148 C.3       1 <0>        -0.1139
     31 C24        -2.7141  -11.8672    6.9405 C.3       1 <0>        -0.1336
     32 C25         1.1196  -10.4333   10.0970 C.2       1 <0>         0.5891
     33 O2          0.6337  -11.3314   10.7580 O.2       1 <0>        -0.5582
     34 N7          2.3664   -9.9976   10.3654 N.am      1 <0>        -0.8436
     35 H1         -0.0918   -0.2636   -3.2100 H         1 <0>         0.1250
     36 H2          1.5744   -0.8512   -2.9940 H         1 <0>         0.1251
     37 H3          0.2661   -2.0006   -3.3622 H         1 <0>         0.1214
     38 H4          0.8039   -3.2912   -1.3581 H         1 <0>         0.1322
     39 H5          2.1530   -2.1542   -1.1217 H         1 <0>         0.1408
     40 H6          1.4726   -3.3405    0.9969 H         1 <0>         0.1272
     41 H7          1.3216   -1.5669    1.1091 H         1 <0>         0.0879
     42 H8         -2.4565   -1.9721    0.4856 H         1 <0>         0.1260
     43 H9         -1.2825   -0.6600    0.7703 H         1 <0>         0.0873
     44 H10        -1.7612   -0.7909   -1.6311 H         1 <0>         0.1405
     45 H11        -1.3816   -2.5300   -1.6424 H         1 <0>         0.1321
     46 H12         0.9599   -4.5550    1.9582 H         1 <0>         0.1268
     47 H13         0.1427   -6.3528    3.4263 H         1 <0>         0.1392
     48 H14        -3.8073   -4.7293    3.2160 H         1 <0>         0.1317
     49 H15        -2.9883   -2.9254    1.7564 H         1 <0>         0.1277
     50 H16        -3.2391   -7.0413    4.1198 H         1 <0>         0.4269
     51 H17         1.3805   -6.5222    6.6200 H         1 <0>         0.1917
     52 H18        -1.2705  -11.1845    9.1841 H         1 <0>         0.1874
     53 H19        -3.3822   -9.8623    6.5226 H         1 <0>         0.1275
     54 H20        -3.3545  -10.8811    9.3998 H         1 <0>         0.0755
     55 H21        -3.9644   -9.2965    8.8656 H         1 <0>         0.0725
     56 H22        -5.8191  -10.9209    9.1300 H         1 <0>         0.0745
     57 H23        -5.6410  -10.4259    7.4296 H         1 <0>         0.0672
     58 H24        -4.5072  -12.9741    8.6697 H         1 <0>         0.0683
     59 H25        -5.9383  -12.8806    7.6154 H         1 <0>         0.0708
     60 H26        -3.9250  -13.5399    6.3267 H         1 <0>         0.0742
     61 H27        -4.5349  -11.9553    5.7926 H         1 <0>         0.0672
     62 H28        -2.0703  -11.9155    6.0623 H         1 <0>         0.0721
     63 H29        -2.2484  -12.4105    7.7627 H         1 <0>         0.0752
     64 H30         2.7266   -9.2340    9.8878 H         1 <0>         0.4127
     65 H31         2.9036  -10.4477   11.0360 H         1 <0>         0.4023
     66 H32         0.5066   -0.4079   -0.9084 H         1 <0>         0.4249
@<TRIPOS>BOND
     1    1    2 1
     2    1   35 1
     3    1   36 1
     4    1   37 1
     5    2    7 1
     6    2    3 1
     7    2   66 1
     8    3    4 1
     9    3   38 1
    10    3   39 1
    11    4    5 1
    12    4   40 1
    13    4   41 1
    14    5    6 1
    15    5    8 1
    16    6    7 1
    17    6   42 1
    18    6   43 1
    19    7   44 1
    20    7   45 1
    21    8   13 ar
    22    8    9 ar
    23    9   10 ar
    24    9   46 1
    25   10   11 ar
    26   10   47 1
    27   11   12 ar
    28   11   14 1
    29   12   13 ar
    30   12   48 1
    31   13   49 1
    32   14   15 1
    33   14   50 1
    34   15   25 ar
    35   15   16 ar
    36   16   17 ar
    37   17   18 ar
    38   17   51 1
    39   18   24 ar
    40   18   19 1
    41   19   20 2
    42   19   21 1
    43   21   22 2
    44   21   32 1
    45   22   23 1
    46   22   52 1
    47   23   24 1
    48   23   26 1
    49   24   25 ar
    50   26   31 1
    51   26   27 1
    52   26   53 1
    53   27   28 1
    54   27   54 1
    55   27   55 1
    56   28   29 1
    57   28   56 1
    58   28   57 1
    59   29   30 1
    60   29   58 1
    61   29   59 1
    62   30   31 1
    63   30   60 1
    64   30   61 1
    65   31   62 1
    66   31   63 1
    67   32   33 2
    68   32   34 am
    69   34   64 1
    70   34   65 1
@<TRIPOS>MOLECULE
CHEMBL272332__1
   65    69     0     0     0
SMALL
USER_CHARGES

@<TRIPOS>ATOM
      1 C1          0.6685   -0.9571   -2.8937 C.3       1 <0>         0.0242
      2 N1          0.3593   -1.2490   -1.4876 N.3       1 <0>        -0.5427
      3 C2          1.2153   -2.3262   -0.9730 C.3       1 <0>         0.0382
      4 C3          0.9905   -2.4764    0.5353 C.3       1 <0>         0.1252
      5 N2         -0.4490   -2.6565    0.7775 N.pl3     1 <0>        -0.6307
      6 C4         -1.3819   -1.6910    0.1767 C.3       1 <0>         0.1259
      7 C5         -1.0636   -1.5717   -1.3175 C.3       1 <0>         0.0386
      8 C6         -0.9187   -3.7185    1.5584 C.ar      1 <0>         0.2148
      9 C7         -0.0336   -4.6812    2.0259 C.ar      1 <0>        -0.1817
     10 C8         -0.4969   -5.7287    2.7967 C.ar      1 <0>        -0.0525
     11 C9         -1.8481   -5.8200    3.1042 C.ar      1 <0>         0.0886
     12 C10        -2.7331   -4.8575    2.6368 C.ar      1 <0>        -0.0866
     13 C11        -2.2690   -3.8067    1.8707 C.ar      1 <0>        -0.1819
     14 N3         -2.3182   -6.8834    3.8855 N.pl3     1 <0>        -0.6191
     15 C12        -1.5327   -7.3955    4.8990 C.ar      1 <0>         0.6128
     16 N4         -0.3888   -6.7858    5.1909 N.ar      1 <0>        -0.5680
     17 C13         0.3978   -7.2370    6.1521 C.ar      1 <0>         0.2837
     18 C14        -0.0002   -8.3736    6.8581 C.ar      1 <0>        -0.3455
     19 C15         0.8131   -8.9427    7.9423 C.2       1 <0>         0.4545
     20 O1          1.8747   -8.4430    8.2716 O.2       1 <0>        -0.4863
     21 C16         0.2867  -10.1446    8.6136 C.2       1 <0>        -0.3334
     22 C17        -0.9198  -10.6642    8.1977 C.2       1 <0>         0.2512
     23 N5         -1.6331  -10.1140    7.2022 N.pl3     1 <0>        -0.4672
     24 C18        -1.2195   -8.9970    6.5239 C.ar      1 <0>         0.4670
     25 N6         -1.9509   -8.4723    5.5465 N.ar      1 <0>        -0.6020
     26 C19        -2.9062  -10.7331    6.8253 C.3       1 <0>         0.1169
     27 C20        -3.8512  -10.7292    8.0286 C.3       1 <0>        -0.1335
     28 C21        -5.1808  -11.3758    7.6350 C.3       1 <0>        -0.1141
     29 C22        -4.9336  -12.8172    7.1853 C.3       1 <0>        -0.1260
     30 C23        -3.9886  -12.8211    5.9820 C.3       1 <0>        -0.1142
     31 C24        -2.6590  -12.1745    6.3756 C.3       1 <0>        -0.1332
     32 C25         1.0369  -10.7791    9.7088 C.2       1 <0>         0.5909
     33 O2          0.5492  -11.7107   10.3203 O.2       1 <0>        -0.5629
     34 N7          2.2646  -10.3281   10.0344 N.am      1 <0>        -0.8442
     35 H1          0.0748   -0.1060   -3.2272 H         1 <0>         0.0708
     36 H2          1.7283   -0.7214   -2.9914 H         1 <0>         0.0706
     37 H3          0.4319   -1.8273   -3.5060 H         1 <0>         0.0258
     38 H4          0.9634   -3.2613   -1.4732 H         1 <0>         0.0384
     39 H5          2.2606   -2.0821   -1.1624 H         1 <0>         0.0862
     40 H6          1.5351   -3.3465    0.9019 H         1 <0>         0.0877
     41 H7          1.3388   -1.5800    1.0485 H         1 <0>         0.0711
     42 H8         -2.4057   -2.0418    0.3062 H         1 <0>         0.0864
     43 H9         -1.2616   -0.7191    0.6554 H         1 <0>         0.0706
     44 H10        -1.6711   -0.7804   -1.7568 H         1 <0>         0.0860
     45 H11        -1.2838   -2.5174   -1.8129 H         1 <0>         0.0383
     46 H12         1.0171   -4.6106    1.7862 H         1 <0>         0.1263
     47 H13         0.1914   -6.4774    3.1603 H         1 <0>         0.1319
     48 H14        -3.7839   -4.9285    2.8759 H         1 <0>         0.1243
     49 H15        -2.9568   -3.0559    1.5105 H         1 <0>         0.1270
     50 H16        -3.1957   -7.2599    3.7145 H         1 <0>         0.4233
     51 H17         1.3270   -6.7385    6.3856 H         1 <0>         0.1901
     52 H18        -1.3050  -11.5451    8.6896 H         1 <0>         0.1849
     53 H19        -3.3564  -10.1696    6.0080 H         1 <0>         0.1283
     54 H20        -3.4011  -11.2927    8.8459 H         1 <0>         0.0742
     55 H21        -4.0273   -9.7024    8.3490 H         1 <0>         0.0728
     56 H22        -5.8540  -11.3731    8.4922 H         1 <0>         0.0730
     57 H23        -5.6310  -10.8124    6.8177 H         1 <0>         0.0679
     58 H24        -4.4835  -13.3806    8.0026 H         1 <0>         0.0670
     59 H25        -5.8808  -13.2778    6.9049 H         1 <0>         0.0694
     60 H26        -3.8125  -13.8479    5.6616 H         1 <0>         0.0729
     61 H27        -4.4388  -12.2576    5.1647 H         1 <0>         0.0679
     62 H28        -1.9858  -12.1772    5.5184 H         1 <0>         0.0726
     63 H29        -2.2089  -12.7379    7.1929 H         1 <0>         0.0738
     64 H30         2.6236   -9.5403    9.5970 H         1 <0>         0.4134
     65 H31         2.7890  -10.7914   10.7061 H         1 <0>         0.4004
@<TRIPOS>BOND
     1    1    2 1
     2    1   35 1
     3    1   36 1
     4    1   37 1
     5    2    7 1
     6    2    3 1
     7    3    4 1
     8    3   38 1
     9    3   39 1
    10    4    5 1
    11    4   40 1
    12    4   41 1
    13    5    6 1
    14    5    8 1
    15    6    7 1
    16    6   42 1
    17    6   43 1
    18    7   44 1
    19    7   45 1
    20    8   13 ar
    21    8    9 ar
    22    9   10 ar
    23    9   46 1
    24   10   11 ar
    25   10   47 1
    26   11   12 ar
    27   11   14 1
    28   12   13 ar
    29   12   48 1
    30   13   49 1
    31   14   15 1
    32   14   50 1
    33   15   25 ar
    34   15   16 ar
    35   16   17 ar
    36   17   18 ar
    37   17   51 1
    38   18   24 ar
    39   18   19 1
    40   19   20 2
    41   19   21 1
    42   21   22 2
    43   21   32 1
    44   22   23 1
    45   22   52 1
    46   23   24 1
    47   23   26 1
    48   24   25 ar
    49   26   31 1
    50   26   27 1
    51   26   53 1
    52   27   28 1
    53   27   54 1
    54   27   55 1
    55   28   29 1
    56   28   56 1
    57   28   57 1
    58   29   30 1
    59   29   58 1
    60   29   59 1
    61   30   31 1
    62   30   60 1
    63   30   61 1
    64   31   62 1
    65   31   63 1
    66   32   33 2
    67   32   34 am
    68   34   64 1
    69   34   65 1
@<TRIPOS>MOLECULE
CHEMBL497353
   64    68     0     0     0
SMALL
USER_CHARGES

@<TRIPOS>ATOM
      1 C1          0.0039    1.5025    0.0572 C.3       1 <0>        -0.1219
      2 C2          0.0199   -0.0042    0.0309 C.ar      1 <0>        -0.0718
      3 C3         -0.5709   -0.7187    1.0541 C.ar      1 <0>        -0.0999
      4 C4         -0.5592   -2.1002    1.0342 C.ar      1 <0>        -0.1300
      5 C5          0.0480   -2.7787   -0.0160 C.ar      1 <0>         0.1319
      6 C6          0.6435   -2.0686   -1.0474 C.ar      1 <0>        -0.0951
      7 C7          0.6261   -0.6761   -1.0293 C.ar      1 <0>        -0.0391
      8 C8          1.2559    0.0899   -2.1324 C.ar      1 <0>         0.0209
      9 C9          0.5468    1.1202   -2.7577 C.ar      1 <0>        -0.1384
     10 C10         1.1161    1.8317   -3.7730 C.ar      1 <0>        -0.0353
     11 C11         2.4140    1.5321   -4.1927 C.ar      1 <0>        -0.2066
     12 C12         3.1345    0.4994   -3.5714 C.ar      1 <0>         0.1062
     13 C13         2.5500   -0.2158   -2.5359 C.ar      1 <0>        -0.1183
     14 O1          4.3408    0.4356   -4.1724 O.3       1 <0>        -0.0910
     15 N1          4.4158    1.4198   -5.1838 N.2       1 <0>        -0.3573
     16 C14         3.2972    2.0893   -5.2281 C.2       1 <0>         0.3780
     17 N2          2.9964    3.1331   -6.0920 N.pl3     1 <0>        -0.8155
     18 N3          0.0586   -4.1772   -0.0322 N.am      1 <0>        -0.6669
     19 C15        -0.0400   -4.8384   -1.2025 C.2       1 <0>         0.5541
     20 O2         -0.0535   -4.2214   -2.2499 O.2       1 <0>        -0.5067
     21 C16        -0.1319   -6.3136   -1.2125 C.ar      1 <0>        -0.1229
     22 C17        -0.1225   -7.0247   -0.0113 C.ar      1 <0>        -0.0841
     23 C18        -0.2085   -8.4015   -0.0277 C.ar      1 <0>        -0.1244
     24 C19        -0.3034   -9.0775   -1.2312 C.ar      1 <0>        -0.0680
     25 C20        -0.3128   -8.3788   -2.4254 C.ar      1 <0>        -0.0990
     26 C21        -0.2342   -7.0014   -2.4229 C.ar      1 <0>        -0.0528
     27 C22        -0.3965  -10.5816   -1.2414 C.3       1 <0>         0.0935
     28 N4         -1.8078  -10.9852   -1.1836 N.3       1 <0>        -0.5345
     29 C23        -2.4101  -10.6116    0.1039 C.3       1 <0>         0.0185
     30 C24        -3.8916  -10.9948    0.1009 C.3       1 <0>        -0.0024
     31 N5         -4.0230  -12.4411   -0.1193 N.4       1 <0>        -0.3883
     32 C25        -3.4391  -12.7951   -1.4198 C.3       1 <0>        -0.0025
     33 C26        -1.9538  -12.4269   -1.4294 C.3       1 <0>         0.0250
     34 C27        -5.4445  -12.8113   -0.1042 C.3       1 <0>        -0.0460
     35 H1         -0.8922    1.8652   -0.4463 H         1 <0>         0.0753
     36 H2          0.0048    1.8478    1.0911 H         1 <0>         0.0703
     37 H3          0.8876    1.8842   -0.4541 H         1 <0>         0.0727
     38 H4         -1.0433   -0.1961    1.8727 H         1 <0>         0.1330
     39 H5         -1.0227   -2.6544    1.8370 H         1 <0>         0.1275
     40 H6          1.1162   -2.5938   -1.8642 H         1 <0>         0.1439
     41 H7         -0.4572    1.3537   -2.4353 H         1 <0>         0.1379
     42 H8          0.5632    2.6261   -4.2522 H         1 <0>         0.1341
     43 H9          3.0971   -1.0091   -2.0483 H         1 <0>         0.1395
     44 H10         2.1306    3.5678   -6.0444 H         1 <0>         0.4174
     45 H11         3.6520    3.4278   -6.7433 H         1 <0>         0.4162
     46 H12         0.1370   -4.6713    0.7988 H         1 <0>         0.4098
     47 H13        -0.0477   -6.4983    0.9287 H         1 <0>         0.1294
     48 H14        -0.2013   -8.9529    0.9009 H         1 <0>         0.1269
     49 H15        -0.3864   -8.9125   -3.3614 H         1 <0>         0.1344
     50 H16        -0.2465   -6.4569   -3.3555 H         1 <0>         0.1426
     51 H17         0.0545  -10.9673   -2.1557 H         1 <0>         0.1011
     52 H18         0.1322  -10.9842   -0.3775 H         1 <0>         0.0599
     53 H19        -1.9000  -11.1381    0.9106 H         1 <0>         0.0619
     54 H20        -2.3129   -9.5362    0.2525 H         1 <0>         0.1261
     55 H21        -4.3370  -10.7315    1.0603 H         1 <0>         0.1359
     56 H22        -4.4042  -10.4577   -0.6972 H         1 <0>         0.1377
     57 H23        -3.5489  -13.8665   -1.5878 H         1 <0>         0.1369
     58 H24        -3.9539  -12.2488   -2.2101 H         1 <0>         0.1381
     59 H25        -1.5236  -12.6758   -2.3995 H         1 <0>         0.1254
     60 H26        -1.4361  -12.9833   -0.6480 H         1 <0>         0.0623
     61 H27        -5.9683  -12.2741   -0.8949 H         1 <0>         0.1233
     62 H28        -5.5423  -13.8845   -0.2676 H         1 <0>         0.1247
     63 H29        -5.8778  -12.5498    0.8613 H         1 <0>         0.1243
     64 H30        -3.5386  -12.9380    0.6131 H         1 <0>         0.4224
@<TRIPOS>BOND
     1    1    2 1
     2    1   35 1
     3    1   36 1
     4    1   37 1
     5    2    7 ar
     6    2    3 ar
     7    3    4 ar
     8    3   38 1
     9    4    5 ar
    10    4   39 1
    11    5    6 ar
    12    5   18 1
    13    6    7 ar
    14    6   40 1
    15    7    8 1
    16    8   13 ar
    17    8    9 ar
    18    9   10 ar
    19    9   41 1
    20   10   11 ar
    21   10   42 1
    22   11   16 1
    23   11   12 ar
    24   12   13 ar
    25   12   14 1
    26   13   43 1
    27   14   15 1
    28   15   16 2
    29   16   17 1
    30   17   44 1
    31   17   45 1
    32   18   19 am
    33   18   46 1
    34   19   20 2
    35   19   21 1
    36   21   26 ar
    37   21   22 ar
    38   22   23 ar
    39   22   47 1
    40   23   24 ar
    41   23   48 1
    42   24   25 ar
    43   24   27 1
    44   25   26 ar
    45   25   49 1
    46   26   50 1
    47   27   28 1
    48   27   51 1
    49   27   52 1
    50   28   33 1
    51   28   29 1
    52   29   30 1
    53   29   53 1
    54   29   54 1
    55   30   31 1
    56   30   55 1
    57   30   56 1
    58   31   32 1
    59   31   34 1
    60   31   64 1
    61   32   33 1
    62   32   57 1
    63   32   58 1
    64   33   59 1
    65   33   60 1
    66   34   61 1
    67   34   62 1
    68   34   63 1
@<TRIPOS>MOLECULE
CHEMBL497353__1
   64    68     0     0     0
SMALL
USER_CHARGES

@<TRIPOS>ATOM
      1 C1          0.0039    1.5025    0.0572 C.3       1 <0>        -0.1233
      2 C2          0.0199   -0.0042    0.0309 C.ar      1 <0>        -0.0682
      3 C3         -0.5709   -0.7187    1.0541 C.ar      1 <0>        -0.0995
      4 C4         -0.5592   -2.1002    1.0342 C.ar      1 <0>        -0.1273
      5 C5          0.0480   -2.7787   -0.0160 C.ar      1 <0>         0.1264
      6 C6          0.6435   -2.0686   -1.0474 C.ar      1 <0>        -0.0942
      7 C7          0.6261   -0.6761   -1.0293 C.ar      1 <0>        -0.0385
      8 C8          1.2559    0.0899   -2.1324 C.ar      1 <0>         0.0192
      9 C9          0.5468    1.1202   -2.7577 C.ar      1 <0>        -0.1384
     10 C10         1.1161    1.8317   -3.7730 C.ar      1 <0>        -0.0347
     11 C11         2.4140    1.5321   -4.1927 C.ar      1 <0>        -0.2057
     12 C12         3.1345    0.4994   -3.5714 C.ar      1 <0>         0.1059
     13 C13         2.5500   -0.2158   -2.5359 C.ar      1 <0>        -0.1183
     14 O1          4.3408    0.4356   -4.1724 O.3       1 <0>        -0.0911
     15 N1          4.4158    1.4198   -5.1838 N.2       1 <0>        -0.3567
     16 C14         3.2972    2.0893   -5.2281 C.2       1 <0>         0.3782
     17 N2          2.9964    3.1331   -6.0920 N.pl3     1 <0>        -0.8152
     18 N3          0.0586   -4.1772   -0.0322 N.am      1 <0>        -0.6624
     19 C15        -0.0400   -4.8384   -1.2025 C.2       1 <0>         0.5488
     20 O2         -0.0535   -4.2214   -2.2499 O.2       1 <0>        -0.4996
     21 C16        -0.1319   -6.3136   -1.2125 C.ar      1 <0>        -0.0951
     22 C17        -0.1225   -7.0247   -0.0113 C.ar      1 <0>        -0.0832
     23 C18        -0.2085   -8.4015   -0.0277 C.ar      1 <0>        -0.1009
     24 C19        -0.3034   -9.0775   -1.2312 C.ar      1 <0>        -0.1369
     25 C20        -0.3128   -8.3788   -2.4254 C.ar      1 <0>        -0.0963
     26 C21        -0.2342   -7.0014   -2.4229 C.ar      1 <0>        -0.0530
     27 C22        -0.3965  -10.5816   -1.2414 C.3       1 <0>         0.0422
     28 N4         -1.8078  -10.9852   -1.1836 N.4       1 <0>        -0.3857
     29 C23        -2.3840  -10.5673    0.1013 C.3       1 <0>        -0.0077
     30 C24        -3.8591  -10.9709    0.1543 C.3       1 <0>         0.0256
     31 N5         -3.9713  -12.4280   -0.0017 N.3       1 <0>        -0.5431
     32 C25        -3.3761  -12.8642   -1.2727 C.3       1 <0>         0.0239
     33 C26        -1.9050  -12.4450   -1.3140 C.3       1 <0>        -0.0024
     34 C27        -5.3710  -12.8622    0.1006 C.3       1 <0>         0.0192
     35 H1         -0.8922    1.8652   -0.4463 H         1 <0>         0.0764
     36 H2          0.0048    1.8478    1.0911 H         1 <0>         0.0714
     37 H3          0.8876    1.8842   -0.4541 H         1 <0>         0.0734
     38 H4         -1.0433   -0.1961    1.8727 H         1 <0>         0.1345
     39 H5         -1.0227   -2.6544    1.8370 H         1 <0>         0.1285
     40 H6          1.1162   -2.5938   -1.8642 H         1 <0>         0.1434
     41 H7         -0.4572    1.3537   -2.4353 H         1 <0>         0.1381
     42 H8          0.5632    2.6261   -4.2522 H         1 <0>         0.1347
     43 H9          3.0971   -1.0091   -2.0483 H         1 <0>         0.1391
     44 H10         2.1306    3.5678   -6.0444 H         1 <0>         0.4177
     45 H11         3.6520    3.4278   -6.7433 H         1 <0>         0.4165
     46 H12         0.1370   -4.6713    0.7988 H         1 <0>         0.4104
     47 H13        -0.0477   -6.4983    0.9287 H         1 <0>         0.1399
     48 H14        -0.2013   -8.9529    0.9009 H         1 <0>         0.1410
     49 H15        -0.3864   -8.9125   -3.3614 H         1 <0>         0.1414
     50 H16        -0.2465   -6.4569   -3.3555 H         1 <0>         0.1514
     51 H17         0.0545  -10.9673   -2.1557 H         1 <0>         0.1415
     52 H18         0.1322  -10.9842   -0.3775 H         1 <0>         0.1406
     53 H19        -1.8453  -11.0515    0.9157 H         1 <0>         0.1387
     54 H20        -2.2995   -9.4853    0.2025 H         1 <0>         0.1348
     55 H21        -4.2831  -10.6741    1.1136 H         1 <0>         0.1235
     56 H22        -4.4008  -10.4760   -0.6518 H         1 <0>         0.0600
     57 H23        -3.4476  -13.9488   -1.3545 H         1 <0>         0.1249
     58 H24        -3.9098  -12.4006   -2.1023 H         1 <0>         0.0606
     59 H25        -1.4653  -12.7552   -2.2620 H         1 <0>         0.1374
     60 H26        -1.3687  -12.9197   -0.4923 H         1 <0>         0.1394
     61 H27        -5.9588  -12.3807   -0.6809 H         1 <0>         0.0396
     62 H28        -5.4253  -13.9443   -0.0184 H         1 <0>         0.0843
     63 H29        -5.7673  -12.5837    1.0771 H         1 <0>         0.0844
     64 H30        -2.3142  -10.5459   -1.9377 H         1 <0>         0.4207
@<TRIPOS>BOND
     1    1    2 1
     2    1   35 1
     3    1   36 1
     4    1   37 1
     5    2    7 ar
     6    2    3 ar
     7    3    4 ar
     8    3   38 1
     9    4    5 ar
    10    4   39 1
    11    5    6 ar
    12    5   18 1
    13    6    7 ar
    14    6   40 1
    15    7    8 1
    16    8   13 ar
    17    8    9 ar
    18    9   10 ar
    19    9   41 1
    20   10   11 ar
    21   10   42 1
    22   11   16 1
    23   11   12 ar
    24   12   13 ar
    25   12   14 1
    26   13   43 1
    27   14   15 1
    28   15   16 2
    29   16   17 1
    30   17   44 1
    31   17   45 1
    32   18   19 am
    33   18   46 1
    34   19   20 2
    35   19   21 1
    36   21   26 ar
    37   21   22 ar
    38   22   23 ar
    39   22   47 1
    40   23   24 ar
    41   23   48 1
    42   24   25 ar
    43   24   27 1
    44   25   26 ar
    45   25   49 1
    46   26   50 1
    47   27   28 1
    48   27   51 1
    49   27   52 1
    50   28   33 1
    51   28   29 1
    52   28   64 1
    53   29   30 1
    54   29   53 1
    55   29   54 1
    56   30   31 1
    57   30   55 1
    58   30   56 1
    59   31   32 1
    60   31   34 1
    61   32   33 1
    62   32   57 1
    63   32   58 1
    64   33   59 1
    65   33   60 1
    66   34   61 1
    67   34   62 1
    68   34   63 1
@<TRIPOS>MOLECULE
CHEMBL453057
   56    60     0     0     0
SMALL
USER_CHARGES

@<TRIPOS>ATOM
      1 C1         -1.1854    1.0251   -0.4170 C.3       1 <0>        -0.1155
      2 C2         -1.7118   -0.2508    0.1880 C.ar      1 <0>        -0.0663
      3 C3         -2.9514   -0.7342   -0.1893 C.ar      1 <0>        -0.1349
      4 C4         -3.4379   -1.9043    0.3634 C.ar      1 <0>        -0.0949
      5 C5         -2.6865   -2.5947    1.2945 C.ar      1 <0>        -0.1251
      6 C6         -1.4414   -2.1123    1.6751 C.ar      1 <0>         0.1639
      7 C7         -0.9534   -0.9390    1.1143 C.ar      1 <0>        -0.1475
      8 N1         -0.6777   -2.8093    2.6180 N.am      1 <0>        -0.6813
      9 C8         -0.7419   -4.1543    2.6759 C.2       1 <0>         0.7034
     10 O1         -1.3893   -4.7682    1.8497 O.2       1 <0>        -0.5493
     11 N2         -0.0885   -4.8189    3.6495 N.am      1 <0>        -0.6827
     12 C9         -0.0651   -6.2186    3.6473 C.ar      1 <0>         0.1661
     13 C10        -0.0541   -6.9100    2.4421 C.ar      1 <0>        -0.1148
     14 C11        -0.0315   -8.2887    2.4370 C.ar      1 <0>        -0.0800
     15 C12        -0.0191   -8.9891    3.6428 C.ar      1 <0>        -0.0364
     16 C13        -0.0297   -8.2926    4.8509 C.ar      1 <0>        -0.0942
     17 C14        -0.0471   -6.9137    4.8502 C.ar      1 <0>        -0.1419
     18 C15         0.0048  -10.4714    3.6405 C.2       1 <0>        -0.2446
     19 C16        -1.0814  -11.2023    3.1222 C.2       1 <0>         0.1991
     20 N3         -1.0565  -12.5141    3.1224 N.2       1 <0>        -0.4800
     21 C17        -0.0077  -13.1939    3.6102 C.2       1 <0>         0.2433
     22 C18         0.2447  -14.5602    3.7175 C.2       1 <0>        -0.0879
     23 C19         1.5151  -14.6968    4.3148 C.2       1 <0>        -0.1108
     24 C20         1.9975  -13.4590    4.5524 C.2       1 <0>        -0.0705
     25 N4          1.0836  -12.5329    4.1298 N.pl3     1 <0>        -0.4060
     26 C21         1.1012  -11.1591    4.1442 C.2       1 <0>         0.4452
     27 N5          2.1822  -10.4777    4.6527 N.pl3     1 <0>        -0.8393
     28 C22        -0.6522  -15.6612    3.2863 C.2       1 <0>        -0.1474
     29 C23        -2.0192  -15.7921    3.5997 C.2       1 <0>         0.0727
     30 N6         -2.4624  -16.8875    3.0407 N.2       1 <0>        -0.3007
     31 N7         -1.4050  -17.4956    2.3531 N.pl3     1 <0>        -0.3792
     32 C24        -0.3037  -16.7273    2.5093 C.2       1 <0>         0.0590
     33 C25        -1.4807  -18.7447    1.5913 C.3       1 <0>         0.1031
     34 H1         -0.6221    0.7932   -1.3210 H         1 <0>         0.0722
     35 H2         -2.0200    1.6801   -0.6670 H         1 <0>         0.0689
     36 H3         -0.5332    1.5249    0.2992 H         1 <0>         0.0664
     37 H4         -3.5409   -0.1962   -0.9171 H         1 <0>         0.1238
     38 H5         -4.4067   -2.2789    0.0673 H         1 <0>         0.1270
     39 H6         -3.0672   -3.5085    1.7262 H         1 <0>         0.1357
     40 H7          0.0163   -0.5632    1.4055 H         1 <0>         0.1245
     41 H8         -0.1020   -2.3245    3.2299 H         1 <0>         0.4084
     42 H9          0.3654   -4.3273    4.3518 H         1 <0>         0.4089
     43 H10        -0.0637   -6.3671    1.5086 H         1 <0>         0.1386
     44 H11        -0.0237   -8.8257    1.5000 H         1 <0>         0.1291
     45 H12        -0.0202   -8.8325    5.7862 H         1 <0>         0.1263
     46 H13        -0.0508   -6.3737    5.7855 H         1 <0>         0.1279
     47 H14        -1.9388  -10.6809    2.7231 H         1 <0>         0.1689
     48 H15         2.0138  -15.6276    4.5418 H         1 <0>         0.1517
     49 H16         2.9525  -13.2352    5.0045 H         1 <0>         0.1658
     50 H17         2.1836   -9.5077    4.6617 H         1 <0>         0.4233
     51 H18         2.9433  -10.9671    5.0022 H         1 <0>         0.4064
     52 H19        -2.6003  -15.1064    4.1985 H         1 <0>         0.1805
     53 H20         0.6748  -16.9232    2.0964 H         1 <0>         0.1730
     54 H21        -1.7437  -18.5240    0.5568 H         1 <0>         0.0735
     55 H22        -0.5140  -19.2475    1.6211 H         1 <0>         0.0860
     56 H23        -2.2405  -19.3919    2.0293 H         1 <0>         0.0885
@<TRIPOS>BOND
     1    1    2 1
     2    1   34 1
     3    1   35 1
     4    1   36 1
     5    2    7 ar
     6    2    3 ar
     7    3    4 ar
     8    3   37 1
     9    4    5 ar
    10    4   38 1
    11    5    6 ar
    12    5   39 1
    13    6    7 ar
    14    6    8 1
    15    7   40 1
    16    8    9 am
    17    8   41 1
    18    9   10 2
    19    9   11 am
    20   11   12 1
    21   11   42 1
    22   12   17 ar
    23   12   13 ar
    24   13   14 ar
    25   13   43 1
    26   14   15 ar
    27   14   44 1
    28   15   16 ar
    29   15   18 1
    30   16   17 ar
    31   16   45 1
    32   17   46 1
    33   18   26 2
    34   18   19 1
    35   19   20 2
    36   19   47 1
    37   20   21 1
    38   21   25 1
    39   21   22 2
    40   22   23 1
    41   22   28 1
    42   23   24 2
    43   23   48 1
    44   24   25 1
    45   24   49 1
    46   25   26 1
    47   26   27 1
    48   27   50 1
    49   27   51 1
    50   28   32 2
    51   28   29 1
    52   29   30 2
    53   29   52 1
    54   30   31 1
    55   31   32 1
    56   31   33 1
    57   32   53 1
    58   33   54 1
    59   33   55 1
    60   33   56 1
@<TRIPOS>MOLECULE
CHEMBL472512
   46    49     0     0     0
SMALL
USER_CHARGES

@<TRIPOS>ATOM
      1 C1         -0.0089    1.3657   -0.0272 C.ar      1 <0>        -0.1226
      2 C2          1.1732    2.0773   -0.0317 C.ar      1 <0>        -0.0536
      3 C3          2.3122    1.5360    0.5663 C.ar      1 <0>        -0.1402
      4 C4          2.2470    0.2767    1.1655 C.ar      1 <0>        -0.0069
      5 C5          1.0589   -0.4241    1.1630 C.ar      1 <0>        -0.1879
      6 C6         -0.0667    0.1184    0.5683 C.ar      1 <0>        -0.0386
      7 C7          0.9867   -1.7838    1.8088 C.3       1 <0>         0.5098
      8 F1          0.6305   -1.6426    3.1543 F         1 <0>        -0.1725
      9 F2          0.0276   -2.5619    1.1516 F         1 <0>        -0.1736
     10 F3          2.2350   -2.4091    1.7201 F         1 <0>        -0.1724
     11 C8          3.5821    2.2924    0.5649 C.2       1 <0>         0.5653
     12 O1          4.5726    1.8184    1.0865 O.2       1 <0>        -0.5039
     13 N1          3.6419    3.5077   -0.0148 N.am      1 <0>        -0.6686
     14 C9          4.8154    4.2653    0.0679 C.ar      1 <0>         0.1439
     15 C10         6.0537    3.6336    0.0410 C.ar      1 <0>        -0.0750
     16 C11         7.2158    4.3762    0.1223 C.ar      1 <0>        -0.0959
     17 C12         7.1554    5.7524    0.2309 C.ar      1 <0>         0.0079
     18 C13         5.9158    6.3964    0.2588 C.ar      1 <0>        -0.1099
     19 C14         4.7430    5.6452    0.1709 C.ar      1 <0>        -0.1000
     20 C15         5.8470    7.8677    0.3749 C.2       1 <0>         0.5594
     21 O2          6.8704    8.5204    0.4464 O.2       1 <0>        -0.4777
     22 N2          4.6499    8.4863    0.4016 N.am      1 <0>        -0.6152
     23 C16         4.5849    9.8775    0.5114 C.2       1 <0>         0.0161
     24 C17         5.5932   10.7935    0.5975 C.2       1 <0>         0.0131
     25 N3          5.2374   12.0599    0.6936 N.2       1 <0>        -0.4917
     26 C18         3.9782   12.4160    0.7053 C.2       1 <0>         0.0698
     27 S1          3.1597   10.9517    0.5701 S.3       1 <0>         0.1261
     28 C19         3.4002   13.8040    0.8085 C.3       1 <0>        -0.0854
     29 C20         4.3710   14.9825    0.7109 C.3       1 <0>        -0.1474
     30 C21         3.7408   14.6200    2.0571 C.3       1 <0>        -0.1548
     31 Cl1         8.6188    6.6806    0.3333 Cl        1 <0>        -0.0205
     32 H1         -0.8921    1.7854   -0.4856 H         1 <0>         0.1472
     33 H2          1.2171    3.0508   -0.4972 H         1 <0>         0.1372
     34 H3          3.1248   -0.1480    1.6297 H         1 <0>         0.1530
     35 H4         -0.9944   -0.4345    0.5690 H         1 <0>         0.1458
     36 H5          2.8715    3.8572   -0.4893 H         1 <0>         0.4141
     37 H6          6.1072    2.5582   -0.0435 H         1 <0>         0.1570
     38 H7          8.1746    3.8795    0.1012 H         1 <0>         0.1505
     39 H8          3.7818    6.1375    0.1871 H         1 <0>         0.1378
     40 H9          3.8335    7.9656    0.3446 H         1 <0>         0.4153
     41 H10         6.6314   10.4958    0.5879 H         1 <0>         0.1954
     42 H11         2.4069   13.9327    0.3786 H         1 <0>         0.1313
     43 H12         5.4277   14.7540    0.5720 H         1 <0>         0.1081
     44 H13         4.0165   15.8870    0.2166 H         1 <0>         0.1045
     45 H14         2.9717   15.2859    2.4484 H         1 <0>         0.1062
     46 H15         4.3829   14.1529    2.8039 H         1 <0>         0.0995
@<TRIPOS>BOND
     1    1    6 ar
     2    1    2 ar
     3    1   32 1
     4    2    3 ar
     5    2   33 1
     6    3    4 ar
     7    3   11 1
     8    4    5 ar
     9    4   34 1
    10    5    6 ar
    11    5    7 1
    12    6   35 1
    13    7    8 1
    14    7    9 1
    15    7   10 1
    16   11   12 2
    17   11   13 am
    18   13   14 1
    19   13   36 1
    20   14   19 ar
    21   14   15 ar
    22   15   16 ar
    23   15   37 1
    24   16   17 ar
    25   16   38 1
    26   17   18 ar
    27   17   31 1
    28   18   19 ar
    29   18   20 1
    30   19   39 1
    31   20   21 2
    32   20   22 am
    33   22   23 1
    34   22   40 1
    35   23   27 1
    36   23   24 2
    37   24   25 1
    38   24   41 1
    39   25   26 2
    40   26   27 1
    41   26   28 1
    42   28   30 1
    43   28   29 1
    44   28   42 1
    45   29   30 1
    46   29   43 1
    47   29   44 1
    48   30   45 1
    49   30   46 1
@<TRIPOS>MOLECULE
CHEMBL514153
   56    60     0     0     0
SMALL
USER_CHARGES

@<TRIPOS>ATOM
      1 C1         -0.0441    1.4183    0.0192 C.3       1 <0>         0.0010
      2 O1         -0.0344   -0.0106    0.0210 O.3       1 <0>        -0.1490
      3 N1          0.6443   -0.5806    1.1253 N.am      1 <0>        -0.5871
      4 C2          0.7268   -1.9203    1.2471 C.2       1 <0>         0.5985
      5 O2          0.1401   -2.6398    0.4612 O.2       1 <0>        -0.5369
      6 C3          1.5268   -2.5126    2.3308 C.2       1 <0>        -0.3175
      7 C4          1.7175   -3.8756    2.3960 C.2       1 <0>         0.2610
      8 N2          2.4419   -4.4537    3.3700 N.pl3     1 <0>        -0.4236
      9 C5          3.0451   -3.7340    4.3714 C.ar      1 <0>         0.4674
     10 C6          2.9210   -2.3303    4.4107 C.ar      1 <0>        -0.3456
     11 C7          2.1423   -1.6573    3.3610 C.2       1 <0>         0.4568
     12 O3          2.0079   -0.4461    3.3460 O.2       1 <0>        -0.4873
     13 C8          3.5445   -1.6218    5.4387 C.ar      1 <0>         0.2890
     14 N3          4.2322   -2.2984    6.3423 N.ar      1 <0>        -0.5776
     15 C9          4.3308   -3.6215    6.2783 C.ar      1 <0>         0.6158
     16 N4          3.7552   -4.3328    5.3209 N.ar      1 <0>        -0.5922
     17 N5          5.0611   -4.2801    7.2465 N.pl3     1 <0>        -0.6778
     18 C10         5.7095   -3.5204    8.3183 C.3       1 <0>         0.1764
     19 C11         6.4370   -4.4683    9.2367 C.ar      1 <0>        -0.1173
     20 C12         5.7834   -5.0133   10.3260 C.ar      1 <0>        -0.0970
     21 C13         6.4507   -5.8828   11.1684 C.ar      1 <0>        -0.1219
     22 C14         7.7714   -6.2075   10.9212 C.ar      1 <0>        -0.1074
     23 C15         8.4247   -5.6632    9.8314 C.ar      1 <0>        -0.1218
     24 C16         7.7562   -4.7971    8.9865 C.ar      1 <0>        -0.0969
     25 C17         2.5867   -5.8462    3.3630 C.ar      1 <0>         0.0943
     26 C18         3.2919   -6.4683    2.3408 C.ar      1 <0>        -0.1012
     27 C19         3.4319   -7.8408    2.3392 C.ar      1 <0>        -0.0947
     28 C20         2.8721   -8.6021    3.3527 C.ar      1 <0>        -0.0761
     29 C21         2.1693   -7.9857    4.3718 C.ar      1 <0>        -0.0859
     30 C22         2.0310   -6.6088    4.3802 C.ar      1 <0>        -0.0656
     31 C23         1.6621   -9.0272    5.3462 C.3       1 <0>        -0.0828
     32 C24         1.7525  -10.3682    4.5875 C.3       1 <0>        -0.1211
     33 C25         2.8849  -10.0997    3.5738 C.3       1 <0>        -0.0866
     34 H1          0.9807    1.7886   -0.0071 H         1 <0>         0.0562
     35 H2         -0.5827    1.7770   -0.8580 H         1 <0>         0.1125
     36 H3         -0.5378    1.7794    0.9214 H         1 <0>         0.0565
     37 H4          1.0498   -0.0069    1.7941 H         1 <0>         0.4201
     38 H5          1.2692   -4.5014    1.6385 H         1 <0>         0.1909
     39 H6          3.4673   -0.5460    5.4944 H         1 <0>         0.1912
     40 H7          5.1451   -5.2460    7.2174 H         1 <0>         0.4182
     41 H8          6.4203   -2.8163    7.8858 H         1 <0>         0.0828
     42 H9          4.9550   -2.9738    8.8839 H         1 <0>         0.0830
     43 H10         4.7515   -4.7596   10.5191 H         1 <0>         0.1243
     44 H11         5.9403   -6.3081   12.0199 H         1 <0>         0.1256
     45 H12         8.2930   -6.8863   11.5798 H         1 <0>         0.1249
     46 H13         9.4567   -5.9167    9.6385 H         1 <0>         0.1256
     47 H14         8.2655   -4.3747    8.1330 H         1 <0>         0.1243
     48 H15         3.7295   -5.8788    1.5487 H         1 <0>         0.1335
     49 H16         3.9800   -8.3242    1.5441 H         1 <0>         0.1332
     50 H17         1.4860   -6.1270    5.1785 H         1 <0>         0.1242
     51 H18         2.2926   -9.0523    6.2350 H         1 <0>         0.0837
     52 H19         0.6284   -8.8169    5.6206 H         1 <0>         0.0781
     53 H20         2.0226  -11.1789    5.2643 H         1 <0>         0.0804
     54 H21         0.8163  -10.5866    4.0738 H         1 <0>         0.0756
     55 H22         2.6862  -10.6219    2.6378 H         1 <0>         0.0807
     56 H23         3.8439  -10.4130    3.9863 H         1 <0>         0.0854
@<TRIPOS>BOND
     1    1    2 1
     2    1   34 1
     3    1   35 1
     4    1   36 1
     5    2    3 1
     6    3    4 am
     7    3   37 1
     8    4    5 2
     9    4    6 1
    10    6   11 1
    11    6    7 2
    12    7    8 1
    13    7   38 1
    14    8    9 1
    15    8   25 1
    16    9   16 ar
    17    9   10 ar
    18   10   11 1
    19   10   13 ar
    20   11   12 2
    21   13   14 ar
    22   13   39 1
    23   14   15 ar
    24   15   16 ar
    25   15   17 1
    26   17   18 1
    27   17   40 1
    28   18   19 1
    29   18   41 1
    30   18   42 1
    31   19   24 ar
    32   19   20 ar
    33   20   21 ar
    34   20   43 1
    35   21   22 ar
    36   21   44 1
    37   22   23 ar
    38   22   45 1
    39   23   24 ar
    40   23   46 1
    41   24   47 1
    42   25   30 ar
    43   25   26 ar
    44   26   27 ar
    45   26   48 1
    46   27   28 ar
    47   27   49 1
    48   28   33 1
    49   28   29 ar
    50   29   30 ar
    51   29   31 1
    52   30   50 1
    53   31   32 1
    54   31   51 1
    55   31   52 1
    56   32   33 1
    57   32   53 1
    58   32   54 1
    59   33   55 1
    60   33   56 1
@<TRIPOS>MOLECULE
CHEMBL1079545
   49    51     0     0     0
SMALL
USER_CHARGES

@<TRIPOS>ATOM
      1 C1         -0.0343    1.6031    0.0078 C.3       1 <0>        -0.1420
      2 C2         -0.0187    0.0732    0.0164 C.3       1 <0>         0.0032
      3 C3          0.7194   -0.4223    1.2616 C.3       1 <0>        -0.1426
      4 C4         -1.4558   -0.4515    0.0329 C.3       1 <0>        -0.1463
      5 C5          0.6852   -0.4289   -1.2179 C.2       1 <0>         0.0869
      6 C6          1.9605   -0.1717   -1.5582 C.2       1 <0>        -0.2746
      7 C7          2.2288   -0.8272   -2.7809 C.2       1 <0>         0.3537
      8 N1          1.1400   -1.4527   -3.1488 N.2       1 <0>        -0.3618
      9 O1          0.1496   -1.2151   -2.1648 O.3       1 <0>        -0.0690
     10 N2          3.4395   -0.8101   -3.4732 N.am      1 <0>        -0.6421
     11 C8          4.4880   -0.1216   -2.9801 C.2       1 <0>         0.7115
     12 O2          4.3785    0.4846   -1.9319 O.2       1 <0>        -0.5395
     13 N3          5.6579   -0.1050   -3.6491 N.am      1 <0>        -0.6672
     14 C9          6.7171    0.6879   -3.1884 C.ar      1 <0>         0.1142
     15 C10         6.9159    0.8566   -1.8244 C.ar      1 <0>        -0.0927
     16 C11         7.9595    1.6378   -1.3704 C.ar      1 <0>        -0.1092
     17 C12         8.8110    2.2547   -2.2778 C.ar      1 <0>         0.1639
     18 C13         8.6124    2.0855   -3.6419 C.ar      1 <0>        -0.1400
     19 C14         7.5716    1.3003   -4.0957 C.ar      1 <0>        -0.1186
     20 N4          9.8692    3.0474   -1.8174 N.am      1 <0>        -0.6779
     21 C15        10.5191    2.7125   -0.6853 C.2       1 <0>         0.5824
     22 O3         10.1340    1.7713   -0.0190 O.2       1 <0>        -0.4994
     23 C16        11.7001    3.4893   -0.2537 C.ar      1 <0>        -0.1154
     24 C17        12.3714    3.1376    0.9223 C.ar      1 <0>         0.2734
     25 C18        13.4825    3.8823    1.3122 C.ar      1 <0>        -0.2263
     26 C19        13.8770    4.9427    0.5166 C.ar      1 <0>        -0.1034
     27 C20        13.1623    5.2330   -0.6368 C.ar      1 <0>        -0.0510
     28 N5         12.1205    4.5137   -0.9880 N.ar      1 <0>        -0.4206
     29 O4         11.9471    2.0890    1.6710 O.3       1 <0>        -0.6583
     30 H1          0.9895    1.9768   -0.0039 H         1 <0>         0.0680
     31 H2         -0.5602    1.9561   -0.8793 H         1 <0>         0.0607
     32 H3         -0.5435    1.9662    0.9005 H         1 <0>         0.0723
     33 H4          0.2102   -0.0592    2.1544 H         1 <0>         0.0724
     34 H5          0.7305   -1.5123    1.2677 H         1 <0>         0.0612
     35 H6          1.7432   -0.0486    1.2499 H         1 <0>         0.0684
     36 H7         -1.9817   -0.0985   -0.8543 H         1 <0>         0.0628
     37 H8         -1.4447   -1.5414    0.0390 H         1 <0>         0.0631
     38 H9         -1.9650   -0.0883    0.9256 H         1 <0>         0.0681
     39 H10         2.6579    0.4310   -0.9954 H         1 <0>         0.1849
     40 H11         3.5269   -1.2936   -4.3095 H         1 <0>         0.4177
     41 H12         5.7666   -0.6421   -4.4495 H         1 <0>         0.4077
     42 H13         6.2538    0.3769   -1.1188 H         1 <0>         0.1392
     43 H14         8.1137    1.7696   -0.3096 H         1 <0>         0.1461
     44 H15         9.2742    2.5655   -4.3476 H         1 <0>         0.1288
     45 H16         7.4196    1.1654   -5.1564 H         1 <0>         0.1245
     46 H17        10.1345    3.8377   -2.3133 H         1 <0>         0.4134
     47 H18        14.0229    3.6375    2.2147 H         1 <0>         0.1116
     48 H19        14.7340    5.5400    0.7910 H         1 <0>         0.1073
     49 H20        13.4701    6.0610   -1.2582 H         1 <0>         0.1308
@<TRIPOS>BOND
     1    1    2 1
     2    1   30 1
     3    1   31 1
     4    1   32 1
     5    2    3 1
     6    2    4 1
     7    2    5 1
     8    3   33 1
     9    3   34 1
    10    3   35 1
    11    4   36 1
    12    4   37 1
    13    4   38 1
    14    5    9 1
    15    5    6 2
    16    6    7 1
    17    6   39 1
    18    7    8 2
    19    7   10 1
    20    8    9 1
    21   10   11 am
    22   10   40 1
    23   11   12 2
    24   11   13 am
    25   13   14 1
    26   13   41 1
    27   14   19 ar
    28   14   15 ar
    29   15   16 ar
    30   15   42 1
    31   16   17 ar
    32   16   43 1
    33   17   18 ar
    34   17   20 1
    35   18   19 ar
    36   18   44 1
    37   19   45 1
    38   20   21 am
    39   20   46 1
    40   21   22 2
    41   21   23 1
    42   23   24 ar
    43   23   28 ar
    44   24   29 1
    45   24   25 ar
    46   25   26 ar
    47   25   47 1
    48   26   27 ar
    49   26   48 1
    50   27   28 ar
    51   27   49 1
@<TRIPOS>MOLECULE
CHEMBL1079545__1
   50    52     0     0     0
SMALL
USER_CHARGES

@<TRIPOS>ATOM
      1 C1         -0.1121    3.7092   -2.7182 C.3       1 <0>        -0.1418
      2 C2         -0.4643    2.3326   -2.1509 C.3       1 <0>         0.0022
      3 C3         -0.1527    2.3033   -0.6532 C.3       1 <0>        -0.1418
      4 C4         -1.9537    2.0576   -2.3675 C.3       1 <0>        -0.1480
      5 C5          0.3490    1.2765   -2.8540 C.2       1 <0>         0.0916
      6 C6          1.6913    1.1982   -2.8743 C.2       1 <0>        -0.2778
      7 C7          2.0530    0.0666   -3.6392 C.2       1 <0>         0.3493
      8 N1          0.9524   -0.5045   -4.0570 N.2       1 <0>        -0.3562
      9 O1         -0.1412    0.2479   -3.5634 O.3       1 <0>        -0.0646
     10 N2          3.3529   -0.3649   -3.9027 N.am      1 <0>        -0.6401
     11 C8          4.4034    0.3200   -3.4089 C.2       1 <0>         0.7153
     12 O2          4.2179    1.3140   -2.7337 O.2       1 <0>        -0.5403
     13 N3          5.6595   -0.0970   -3.6634 N.am      1 <0>        -0.6722
     14 C9          6.7521    0.6672   -3.2330 C.ar      1 <0>         0.1408
     15 C10         6.6859    1.3568   -2.0295 C.ar      1 <0>        -0.0967
     16 C11         7.7624    2.1094   -1.6050 C.ar      1 <0>        -0.1005
     17 C12         8.9119    2.1769   -2.3817 C.ar      1 <0>         0.1327
     18 C13         8.9780    1.4871   -3.5854 C.ar      1 <0>        -0.1222
     19 C14         7.9032    0.7303   -4.0071 C.ar      1 <0>        -0.1206
     20 N4         10.0036    2.9405   -1.9516 N.am      1 <0>        -0.6557
     21 C15        10.2945    3.0202   -0.6380 C.2       1 <0>         0.5724
     22 O3          9.5612    2.4989    0.1797 O.2       1 <0>        -0.4958
     23 C16        11.5049    3.7412   -0.1916 C.ar      1 <0>         0.0421
     24 C17        11.8057    3.8163    1.1730 C.ar      1 <0>         0.1276
     25 C18        12.9510    4.5004    1.5736 C.ar      1 <0>        -0.1112
     26 C19        13.7466    5.0795    0.6011 C.ar      1 <0>        -0.1254
     27 C20        13.3856    4.9641   -0.7332 C.ar      1 <0>         0.0901
     28 N5         12.3032    4.3092   -1.0887 N.ar      1 <0>        -0.4435
     29 O4         10.9948    3.2328    2.0908 O.3       1 <0>        -0.4701
     30 H1          0.9490    3.9052   -2.5639 H         1 <0>         0.0661
     31 H2         -0.3340    3.7301   -3.7852 H         1 <0>         0.0617
     32 H3         -0.7003    4.4731   -2.2097 H         1 <0>         0.0735
     33 H4         -0.7410    3.0671   -0.1447 H         1 <0>         0.0735
     34 H5         -0.4036    1.3225   -0.2491 H         1 <0>         0.0618
     35 H6          0.9084    2.4992   -0.4990 H         1 <0>         0.0663
     36 H7         -2.1756    2.0785   -3.4344 H         1 <0>         0.0640
     37 H8         -2.2046    1.0769   -1.9633 H         1 <0>         0.0640
     38 H9         -2.5419    2.8214   -1.8590 H         1 <0>         0.0696
     39 H10         2.3738    1.8814   -2.3906 H         1 <0>         0.1837
     40 H11         3.5009   -1.1579   -4.4413 H         1 <0>         0.4196
     41 H12         5.8071   -0.9262   -4.1447 H         1 <0>         0.4117
     42 H13         5.7919    1.3046   -1.4257 H         1 <0>         0.1451
     43 H14         7.7108    2.6460   -0.6692 H         1 <0>         0.1445
     44 H15         9.8716    1.5398   -4.1897 H         1 <0>         0.1330
     45 H16         7.9562    0.1904   -4.9409 H         1 <0>         0.1321
     46 H17        10.5507    3.4122   -2.5990 H         1 <0>         0.4206
     47 H18        13.2116    4.5773    2.6189 H         1 <0>         0.1511
     48 H19        14.6412    5.6172    0.8786 H         1 <0>         0.1483
     49 H20        14.0063    5.4164   -1.4926 H         1 <0>         0.1698
     50 H21        11.2272    2.3166    2.2949 H         1 <0>         0.4006
@<TRIPOS>BOND
     1    1    2 1
     2    1   30 1
     3    1   31 1
     4    1   32 1
     5    2    3 1
     6    2    4 1
     7    2    5 1
     8    3   33 1
     9    3   34 1
    10    3   35 1
    11    4   36 1
    12    4   37 1
    13    4   38 1
    14    5    9 1
    15    5    6 2
    16    6    7 1
    17    6   39 1
    18    7    8 2
    19    7   10 1
    20    8    9 1
    21   10   11 am
    22   10   40 1
    23   11   12 2
    24   11   13 am
    25   13   14 1
    26   13   41 1
    27   14   19 ar
    28   14   15 ar
    29   15   16 ar
    30   15   42 1
    31   16   17 ar
    32   16   43 1
    33   17   18 ar
    34   17   20 1
    35   18   19 ar
    36   18   44 1
    37   19   45 1
    38   20   21 am
    39   20   46 1
    40   21   22 2
    41   21   23 1
    42   23   28 ar
    43   23   24 ar
    44   24   25 ar
    45   24   29 1
    46   25   26 ar
    47   25   47 1
    48   26   27 ar
    49   26   48 1
    50   27   28 ar
    51   27   49 1
    52   29   50 1
@<TRIPOS>MOLECULE
CHEMBL1079545__2
   50    52     0     0     0
SMALL
USER_CHARGES

@<TRIPOS>ATOM
      1 C1         -0.1123    3.7069   -2.7180 C.3       1 <0>        -0.1416
      2 C2         -0.4641    2.3301   -2.1508 C.3       1 <0>         0.0021
      3 C3         -0.1526    2.3008   -0.6531 C.3       1 <0>        -0.1421
      4 C4         -1.9535    2.0547   -2.3674 C.3       1 <0>        -0.1480
      5 C5          0.3494    1.2743   -2.8539 C.2       1 <0>         0.0920
      6 C6          1.6917    1.1963   -2.8743 C.2       1 <0>        -0.2780
      7 C7          2.0537    0.0648   -3.6393 C.2       1 <0>         0.3490
      8 N1          0.9532   -0.5065   -4.0570 N.2       1 <0>        -0.3560
      9 O1         -0.1406    0.2456   -3.5634 O.3       1 <0>        -0.0643
     10 N2          3.3537   -0.3664   -3.9028 N.am      1 <0>        -0.6398
     11 C8          4.4040    0.3187   -3.4089 C.2       1 <0>         0.7155
     12 O2          4.2183    1.3127   -2.7337 O.2       1 <0>        -0.5398
     13 N3          5.6602   -0.0979   -3.6635 N.am      1 <0>        -0.6726
     14 C9          6.7526    0.6665   -3.2331 C.ar      1 <0>         0.1439
     15 C10         6.6862    1.3560   -2.0295 C.ar      1 <0>        -0.0949
     16 C11         7.7625    2.1092   -1.6053 C.ar      1 <0>        -0.0974
     17 C12         8.9119    2.1770   -2.3820 C.ar      1 <0>         0.1340
     18 C13         8.9783    1.4869   -3.5855 C.ar      1 <0>        -0.1246
     19 C14         7.9037    0.7299   -4.0072 C.ar      1 <0>        -0.1210
     20 N4         10.0032    2.9412   -1.9520 N.am      1 <0>        -0.6833
     21 C15        10.2941    3.0214   -0.6385 C.2       1 <0>         0.5613
     22 O3          9.5609    2.5002    0.1794 O.2       1 <0>        -0.4480
     23 C16        11.5043    3.7428   -0.1923 C.ar      1 <0>        -0.1108
     24 C17        11.8019    3.8233    1.1724 C.ar      1 <0>         0.2938
     25 C18        12.9474    4.5078    1.5730 C.ar      1 <0>        -0.1099
     26 C19        13.7459    5.0817    0.6002 C.ar      1 <0>        -0.1013
     27 C20        13.3877    4.9611   -0.7349 C.ar      1 <0>         0.0278
     28 N5         12.3055    4.3062   -1.0901 N.ar      1 <0>        -0.3726
     29 O4         10.9882    3.2446    2.0906 O.3       1 <0>        -0.5676
     30 H1          0.9487    3.9030   -2.5637 H         1 <0>         0.0660
     31 H2         -0.3343    3.7278   -3.7850 H         1 <0>         0.0615
     32 H3         -0.7007    4.4706   -2.2095 H         1 <0>         0.0736
     33 H4         -0.7410    3.0645   -0.1446 H         1 <0>         0.0737
     34 H5         -0.4032    1.3200   -0.2490 H         1 <0>         0.0620
     35 H6          0.9085    2.4970   -0.4989 H         1 <0>         0.0664
     36 H7         -2.1755    2.0757   -3.4343 H         1 <0>         0.0639
     37 H8         -2.2041    1.0739   -1.9632 H         1 <0>         0.0641
     38 H9         -2.5419    2.8184   -1.8588 H         1 <0>         0.0697
     39 H10         2.3740    1.8796   -2.3906 H         1 <0>         0.1837
     40 H11         3.5019   -1.1593   -4.4414 H         1 <0>         0.4197
     41 H12         5.8080   -0.9270   -4.1448 H         1 <0>         0.4120
     42 H13         5.7924    1.3033   -1.4255 H         1 <0>         0.1467
     43 H14         7.7106    2.6460   -0.6696 H         1 <0>         0.1459
     44 H15         9.8719    1.5399   -4.1897 H         1 <0>         0.1308
     45 H16         7.9568    0.1900   -4.9411 H         1 <0>         0.1325
     46 H17        10.5501    3.4130   -2.5995 H         1 <0>         0.3957
     47 H18        13.2057    4.5888    2.6185 H         1 <0>         0.1549
     48 H19        14.6404    5.6195    0.8775 H         1 <0>         0.1626
     49 H20        14.0109    5.4091   -1.4947 H         1 <0>         0.1878
     50 H21        12.0836    4.2356   -2.0317 H         1 <0>         0.4208
@<TRIPOS>BOND
     1    1    2 1
     2    1   30 1
     3    1   31 1
     4    1   32 1
     5    2    3 1
     6    2    4 1
     7    2    5 1
     8    3   33 1
     9    3   34 1
    10    3   35 1
    11    4   36 1
    12    4   37 1
    13    4   38 1
    14    5    9 1
    15    5    6 2
    16    6    7 1
    17    6   39 1
    18    7    8 2
    19    7   10 1
    20    8    9 1
    21   10   11 am
    22   10   40 1
    23   11   12 2
    24   11   13 am
    25   13   14 1
    26   13   41 1
    27   14   19 ar
    28   14   15 ar
    29   15   16 ar
    30   15   42 1
    31   16   17 ar
    32   16   43 1
    33   17   18 ar
    34   17   20 1
    35   18   19 ar
    36   18   44 1
    37   19   45 1
    38   20   21 am
    39   20   46 1
    40   21   22 2
    41   21   23 1
    42   23   24 ar
    43   23   28 ar
    44   24   29 1
    45   24   25 ar
    46   25   26 ar
    47   25   47 1
    48   26   27 ar
    49   26   48 1
    50   27   28 ar
    51   27   49 1
    52   28   50 1
@<TRIPOS>MOLECULE
CHEMBL451575
   80    85     0     0     0
SMALL
USER_CHARGES

@<TRIPOS>ATOM
      1 C1         -1.6697    1.9514   -0.2525 C.3       1 <0>        -0.1463
      2 C2         -1.3009    0.4693   -0.3436 C.3       1 <0>         0.0284
      3 O1         -2.4530   -0.3266   -0.0590 O.3       1 <0>        -0.1455
      4 N1         -2.2179   -1.7218   -0.1171 N.am      1 <0>        -0.5861
      5 C3         -3.2224   -2.5854    0.1311 C.2       1 <0>         0.5970
      6 O2         -4.3079   -2.1691    0.4889 O.2       1 <0>        -0.5330
      7 C4         -3.0060   -4.0318   -0.0309 C.2       1 <0>        -0.3125
      8 C5         -4.0515   -4.9171    0.1161 C.2       1 <0>         0.2602
      9 N2         -3.8933   -6.2450   -0.0237 N.pl3     1 <0>        -0.4224
     10 C6         -2.6828   -6.8195   -0.3224 C.ar      1 <0>         0.4674
     11 C7         -1.5385   -6.0148   -0.4969 C.ar      1 <0>        -0.3334
     12 C8         -1.6687   -4.5570   -0.3589 C.2       1 <0>         0.4551
     13 O3         -0.7120   -3.8160   -0.5042 O.2       1 <0>        -0.4818
     14 C9         -0.3200   -6.6234   -0.8009 C.ar      1 <0>         0.2846
     15 N3         -0.2850   -7.9398   -0.9144 N.ar      1 <0>        -0.5684
     16 C10        -1.3807   -8.6712   -0.7442 C.ar      1 <0>         0.6111
     17 N4         -2.5567   -8.1352   -0.4545 N.ar      1 <0>        -0.5826
     18 N5         -1.2901  -10.0434   -0.8739 N.pl3     1 <0>        -0.6293
     19 C11        -0.0433  -10.6468   -1.0640 C.ar      1 <0>         0.1641
     20 C12         1.0726  -10.1657   -0.3912 C.ar      1 <0>        -0.1017
     21 C13         2.3028  -10.7640   -0.5812 C.ar      1 <0>        -0.0917
     22 C14         2.4244  -11.8406   -1.4405 C.ar      1 <0>        -0.1065
     23 C15         1.3154  -12.3220   -2.1119 C.ar      1 <0>        -0.0946
     24 C16         0.0812  -11.7322   -1.9216 C.ar      1 <0>        -0.1378
     25 C17         3.7685  -12.4903   -1.6462 C.3       1 <0>        -0.0726
     26 C18         3.9543  -13.6127   -0.6232 C.3       1 <0>         0.0599
     27 N6          5.2645  -14.2460   -0.8237 N.3       1 <0>        -0.5399
     28 C19         5.3195  -14.9449   -2.1154 C.3       1 <0>         0.0197
     29 C20         6.7162  -15.5387   -2.3117 C.3       1 <0>        -0.0030
     30 N7          7.0093  -16.4732   -1.2170 N.4       1 <0>        -0.3884
     31 C21         6.9749  -15.7556    0.0642 C.3       1 <0>        -0.0025
     32 C22         5.5804  -15.1637    0.2801 C.3       1 <0>         0.0250
     33 C23         8.3428  -17.0565   -1.4155 C.3       1 <0>        -0.0459
     34 C24        -5.0081   -7.0753    0.1427 C.ar      1 <0>         0.0899
     35 C25        -6.0337   -7.0607   -0.7939 C.ar      1 <0>        -0.0980
     36 C26        -7.1297   -7.8816   -0.6253 C.ar      1 <0>        -0.0942
     37 C27        -7.2124   -8.7207    0.4744 C.ar      1 <0>        -0.0728
     38 C28        -6.1930   -8.7374    1.4086 C.ar      1 <0>        -0.0864
     39 C29        -5.0894   -7.9197    1.2406 C.ar      1 <0>        -0.0676
     40 C30        -6.5196   -9.7294    2.5045 C.3       1 <0>        -0.0826
     41 C31        -8.0346   -9.9927    2.3726 C.3       1 <0>        -0.1216
     42 C32        -8.2930   -9.7007    0.8793 C.3       1 <0>        -0.0877
     43 H1         -0.7909    2.5586   -0.4696 H         1 <0>         0.0820
     44 H2         -2.4540    2.1758   -0.9754 H         1 <0>         0.0684
     45 H3         -2.0271    2.1758    0.7526 H         1 <0>         0.0686
     46 H4         -0.9435    0.2450   -1.3486 H         1 <0>         0.0617
     47 H5         -0.5166    0.2450    0.3794 H         1 <0>         0.0618
     48 H6         -1.3338   -2.0559   -0.3355 H         1 <0>         0.4193
     49 H7         -5.0321   -4.5310    0.3520 H         1 <0>         0.1934
     50 H8          0.5733   -6.0327   -0.9405 H         1 <0>         0.1942
     51 H9         -2.0915  -10.5884   -0.8331 H         1 <0>         0.4275
     52 H10         0.9785   -9.3245    0.2795 H         1 <0>         0.1320
     53 H11         3.1708  -10.3904   -0.0584 H         1 <0>         0.1270
     54 H12         1.4138  -13.1630   -2.7823 H         1 <0>         0.1234
     55 H13        -0.7854  -12.1118   -2.4425 H         1 <0>         0.1274
     56 H14         3.8217  -12.9041   -2.6532 H         1 <0>         0.0715
     57 H15         4.5550  -11.7469   -1.5168 H         1 <0>         0.0856
     58 H16         3.9010  -13.1989    0.3838 H         1 <0>         0.0905
     59 H17         3.1677  -14.3561   -0.7526 H         1 <0>         0.0487
     60 H18         4.5792  -15.7448   -2.1280 H         1 <0>         0.0607
     61 H19         5.1077  -14.2402   -2.9195 H         1 <0>         0.1259
     62 H20         6.7549  -16.0696   -3.2628 H         1 <0>         0.1354
     63 H21         7.4549  -14.7371   -2.3127 H         1 <0>         0.1379
     64 H22         7.2054  -16.4474    0.8744 H         1 <0>         0.1356
     65 H23         7.7122  -14.9530    0.0510 H         1 <0>         0.1379
     66 H24         5.5588  -14.6185    1.2238 H         1 <0>         0.1237
     67 H25         4.8443  -15.9672    0.3070 H         1 <0>         0.0603
     68 H26         9.0892  -16.2622   -1.4249 H         1 <0>         0.1233
     69 H27         8.5606  -17.7501   -0.6033 H         1 <0>         0.1241
     70 H28         8.3682  -17.5902   -2.3656 H         1 <0>         0.1242
     71 H29        -5.9734   -6.4080   -1.6522 H         1 <0>         0.1339
     72 H30        -7.9271   -7.8698   -1.3535 H         1 <0>         0.1346
     73 H31        -4.2913   -7.9358    1.9680 H         1 <0>         0.1238
     74 H32        -5.9608  -10.6536    2.3569 H         1 <0>         0.0830
     75 H33        -6.2937   -9.3018    3.4813 H         1 <0>         0.0788
     76 H34        -8.2698  -11.0301    2.6108 H         1 <0>         0.0811
     77 H35        -8.6030   -9.3105    3.0048 H         1 <0>         0.0768
     78 H36        -9.2782   -9.2536    0.7463 H         1 <0>         0.0823
     79 H37        -8.2107  -10.6171    0.2949 H         1 <0>         0.0859
     80 H38         6.3187  -17.2087   -1.2090 H         1 <0>         0.4222
@<TRIPOS>BOND
     1    1    2 1
     2    1   43 1
     3    1   44 1
     4    1   45 1
     5    2    3 1
     6    2   46 1
     7    2   47 1
     8    3    4 1
     9    4    5 am
    10    4   48 1
    11    5    6 2
    12    5    7 1
    13    7   12 1
    14    7    8 2
    15    8    9 1
    16    8   49 1
    17    9   10 1
    18    9   34 1
    19   10   17 ar
    20   10   11 ar
    21   11   12 1
    22   11   14 ar
    23   12   13 2
    24   14   15 ar
    25   14   50 1
    26   15   16 ar
    27   16   17 ar
    28   16   18 1
    29   18   19 1
    30   18   51 1
    31   19   24 ar
    32   19   20 ar
    33   20   21 ar
    34   20   52 1
    35   21   22 ar
    36   21   53 1
    37   22   23 ar
    38   22   25 1
    39   23   24 ar
    40   23   54 1
    41   24   55 1
    42   25   26 1
    43   25   56 1
    44   25   57 1
    45   26   27 1
    46   26   58 1
    47   26   59 1
    48   27   32 1
    49   27   28 1
    50   28   29 1
    51   28   60 1
    52   28   61 1
    53   29   30 1
    54   29   62 1
    55   29   63 1
    56   30   31 1
    57   30   33 1
    58   30   80 1
    59   31   32 1
    60   31   64 1
    61   31   65 1
    62   32   66 1
    63   32   67 1
    64   33   68 1
    65   33   69 1
    66   33   70 1
    67   34   39 ar
    68   34   35 ar
    69   35   36 ar
    70   35   71 1
    71   36   37 ar
    72   36   72 1
    73   37   42 1
    74   37   38 ar
    75   38   39 ar
    76   38   40 1
    77   39   73 1
    78   40   41 1
    79   40   74 1
    80   40   75 1
    81   41   42 1
    82   41   76 1
    83   41   77 1
    84   42   78 1
    85   42   79 1
@<TRIPOS>MOLECULE
CHEMBL451575__1
   80    85     0     0     0
SMALL
USER_CHARGES

@<TRIPOS>ATOM
      1 C1          1.0274    1.9936   -1.2791 C.3       1 <0>        -0.1465
      2 C2          0.9451    0.5031   -0.9438 C.3       1 <0>         0.0285
      3 O1          1.2868   -0.2647   -2.0996 O.3       1 <0>        -0.1449
      4 N1          1.2413   -1.6651   -1.8949 N.am      1 <0>        -0.5861
      5 C3          1.5419   -2.5041   -2.9059 C.2       1 <0>         0.5964
      6 O2          1.7679   -2.0619   -4.0163 O.2       1 <0>        -0.5316
      7 C4          1.5965   -3.9548   -2.6665 C.2       1 <0>        -0.3109
      8 C5          2.0055   -4.8141   -3.6629 C.2       1 <0>         0.2599
      9 N2          2.0681   -6.1451   -3.4826 N.pl3     1 <0>        -0.4218
     10 C6          1.7309   -6.7488   -2.2966 C.ar      1 <0>         0.4681
     11 C7          1.2976   -5.9725   -1.2026 C.ar      1 <0>        -0.3305
     12 C8          1.2205   -4.5123   -1.3552 C.2       1 <0>         0.4546
     13 O3          0.8568   -3.7951   -0.4394 O.2       1 <0>        -0.4803
     14 C9          0.9615   -6.6104   -0.0077 C.ar      1 <0>         0.2846
     15 N3          1.0628   -7.9268    0.0530 N.ar      1 <0>        -0.5710
     16 C10         1.4743   -8.6311   -0.9954 C.ar      1 <0>         0.6097
     17 N4          1.8028   -8.0667   -2.1477 N.ar      1 <0>        -0.5801
     18 N5          1.5627  -10.0047   -0.8796 N.pl3     1 <0>        -0.6315
     19 C11         1.1137  -10.6385    0.2829 C.ar      1 <0>         0.1800
     20 C12        -0.0341  -10.1879    0.9224 C.ar      1 <0>        -0.1034
     21 C13        -0.4749  -10.8162    2.0705 C.ar      1 <0>        -0.0869
     22 C14         0.2253  -11.8925    2.5839 C.ar      1 <0>        -0.1226
     23 C15         1.3684  -12.3437    1.9497 C.ar      1 <0>        -0.0856
     24 C16         1.8112  -11.7237    0.7978 C.ar      1 <0>        -0.1382
     25 C17        -0.2581  -12.5751    3.8375 C.3       1 <0>        -0.0970
     26 C18        -1.2195  -13.7054    3.4644 C.3       1 <0>        -0.0059
     27 N6         -1.6908  -14.3707    4.6864 N.4       1 <0>        -0.3872
     28 C19        -0.5586  -15.0259    5.3545 C.3       1 <0>        -0.0070
     29 C20        -1.0456  -15.7032    6.6374 C.3       1 <0>         0.0244
     30 N7         -2.0792  -16.6932    6.3032 N.3       1 <0>        -0.5438
     31 C21        -3.2084  -16.0557    5.6114 C.3       1 <0>         0.0240
     32 C22        -2.7036  -15.3755    4.3370 C.3       1 <0>        -0.0018
     33 C23        -2.5329  -17.4066    7.5046 C.3       1 <0>         0.0193
     34 C24         2.4941   -6.9478   -4.5476 C.ar      1 <0>         0.0882
     35 C25         3.8175   -6.9042   -4.9670 C.ar      1 <0>        -0.0977
     36 C26         4.2319   -7.6978   -6.0167 C.ar      1 <0>        -0.0939
     37 C27         3.3340   -8.5385   -6.6548 C.ar      1 <0>        -0.0717
     38 C28         2.0158   -8.5840   -6.2396 C.ar      1 <0>        -0.0863
     39 C29         1.5970   -7.7937   -5.1837 C.ar      1 <0>        -0.0678
     40 C30         1.2454   -9.5713   -7.0901 C.3       1 <0>        -0.0826
     41 C31         2.1208   -9.7961   -8.3412 C.3       1 <0>        -0.1217
     42 C32         3.5386   -9.4924   -7.8125 C.3       1 <0>        -0.0881
     43 H1          2.0420    2.2402   -1.5922 H         1 <0>         0.0687
     44 H2          0.3321    2.2234   -2.0865 H         1 <0>         0.0688
     45 H3          0.7668    2.5793   -0.3975 H         1 <0>         0.0823
     46 H4          1.6404    0.2734   -0.1365 H         1 <0>         0.0617
     47 H5         -0.0694    0.2566   -0.6308 H         1 <0>         0.0618
     48 H6          0.9939   -2.0205   -1.0269 H         1 <0>         0.4191
     49 H7          2.2852   -4.4044   -4.6222 H         1 <0>         0.1943
     50 H8          0.6268   -6.0418    0.8473 H         1 <0>         0.1948
     51 H9          1.9364  -10.5295   -1.6047 H         1 <0>         0.4295
     52 H10        -0.5810   -9.3469    0.5223 H         1 <0>         0.1356
     53 H11        -1.3673  -10.4664    2.5681 H         1 <0>         0.1280
     54 H12         1.9130  -13.1845    2.3533 H         1 <0>         0.1288
     55 H13         2.7013  -12.0796    0.3003 H         1 <0>         0.1322
     56 H14         0.5938  -12.9865    4.3788 H         1 <0>         0.0943
     57 H15        -0.7749  -11.8521    4.4686 H         1 <0>         0.0944
     58 H16        -2.0714  -13.2939    2.9231 H         1 <0>         0.1328
     59 H17        -0.7028  -14.4284    2.8332 H         1 <0>         0.1323
     60 H18        -0.1280  -15.7744    4.6894 H         1 <0>         0.1381
     61 H19         0.1980  -14.2812    5.6016 H         1 <0>         0.1371
     62 H20        -0.2084  -16.2021    7.1256 H         1 <0>         0.1235
     63 H21        -1.4639  -14.9531    7.3085 H         1 <0>         0.0606
     64 H22        -3.9492  -16.8118    5.3511 H         1 <0>         0.1237
     65 H23        -3.6624  -15.3113    6.2656 H         1 <0>         0.0605
     66 H24        -3.5372  -14.8899    3.8297 H         1 <0>         0.1359
     67 H25        -2.2619  -16.1222    3.6771 H         1 <0>         0.1377
     68 H26        -2.9493  -16.6929    8.2154 H         1 <0>         0.0396
     69 H27        -3.2974  -18.1330    7.2289 H         1 <0>         0.0839
     70 H28        -1.6885  -17.9233    7.9609 H         1 <0>         0.0844
     71 H29         4.5206   -6.2501   -4.4727 H         1 <0>         0.1341
     72 H30         5.2610   -7.6635   -6.3428 H         1 <0>         0.1351
     73 H31         0.5685   -7.8323   -4.8567 H         1 <0>         0.1236
     74 H32         1.1083  -10.5087   -6.5510 H         1 <0>         0.0829
     75 H33         0.2798   -9.1529   -7.3743 H         1 <0>         0.0789
     76 H34         2.0481  -10.8280   -8.6846 H         1 <0>         0.0815
     77 H35         1.8467   -9.1020   -9.1357 H         1 <0>         0.0771
     78 H36         4.1392   -9.0203   -8.5900 H         1 <0>         0.0828
     79 H37         4.0178  -10.4086   -7.4674 H         1 <0>         0.0863
     80 H38        -2.0965  -13.6861    5.3067 H         1 <0>         0.4203
@<TRIPOS>BOND
     1    1    2 1
     2    1   43 1
     3    1   44 1
     4    1   45 1
     5    2    3 1
     6    2   46 1
     7    2   47 1
     8    3    4 1
     9    4    5 am
    10    4   48 1
    11    5    6 2
    12    5    7 1
    13    7   12 1
    14    7    8 2
    15    8    9 1
    16    8   49 1
    17    9   10 1
    18    9   34 1
    19   10   17 ar
    20   10   11 ar
    21   11   12 1
    22   11   14 ar
    23   12   13 2
    24   14   15 ar
    25   14   50 1
    26   15   16 ar
    27   16   17 ar
    28   16   18 1
    29   18   19 1
    30   18   51 1
    31   19   24 ar
    32   19   20 ar
    33   20   21 ar
    34   20   52 1
    35   21   22 ar
    36   21   53 1
    37   22   23 ar
    38   22   25 1
    39   23   24 ar
    40   23   54 1
    41   24   55 1
    42   25   26 1
    43   25   56 1
    44   25   57 1
    45   26   27 1
    46   26   58 1
    47   26   59 1
    48   27   32 1
    49   27   28 1
    50   27   80 1
    51   28   29 1
    52   28   60 1
    53   28   61 1
    54   29   30 1
    55   29   62 1
    56   29   63 1
    57   30   31 1
    58   30   33 1
    59   31   32 1
    60   31   64 1
    61   31   65 1
    62   32   66 1
    63   32   67 1
    64   33   68 1
    65   33   69 1
    66   33   70 1
    67   34   39 ar
    68   34   35 ar
    69   35   36 ar
    70   35   71 1
    71   36   37 ar
    72   36   72 1
    73   37   42 1
    74   37   38 ar
    75   38   39 ar
    76   38   40 1
    77   39   73 1
    78   40   41 1
    79   40   74 1
    80   40   75 1
    81   41   42 1
    82   41   76 1
    83   41   77 1
    84   42   78 1
    85   42   79 1
@<TRIPOS>MOLECULE
CHEMBL427775
   54    57     0     0     0
SMALL
USER_CHARGES

@<TRIPOS>ATOM
      1 C1         -0.0713    1.3907   -0.1582 C.3       1 <0>        -0.0470
      2 N1         -0.0305   -0.0775   -0.1293 N.4       1 <0>        -0.3837
      3 C2         -1.4014   -0.6036   -0.1367 C.3       1 <0>        -0.0236
      4 C3         -1.3600   -2.1329   -0.2223 C.3       1 <0>         0.0992
      5 N2         -0.5214   -2.6389    0.8754 N.pl3     1 <0>        -0.6448
      6 C4          0.8132   -2.0475    1.0575 C.3       1 <0>         0.1000
      7 C5          0.6692   -0.5222    1.0826 C.3       1 <0>        -0.0230
      8 C6         -0.9799   -3.6540    1.7218 C.ar      1 <0>         0.1850
      9 C7         -2.2825   -4.1245    1.5984 C.ar      1 <0>        -0.1625
     10 C8         -2.7432   -5.1259    2.4301 C.ar      1 <0>        -0.0827
     11 C9         -1.9076   -5.6696    3.3949 C.ar      1 <0>         0.1214
     12 C10        -0.5936   -5.2003    3.5243 C.ar      1 <0>        -0.0254
     13 C11        -0.1332   -4.1924    2.6776 C.ar      1 <0>        -0.1531
     14 C12         0.3016   -5.7745    4.5492 C.2       1 <0>        -0.0957
     15 C13         0.1191   -5.4423    5.8107 C.2       1 <0>        -0.1616
     16 C14         0.9843   -5.9691    6.9205 C.3       1 <0>         0.0852
     17 O1          1.7319   -7.0990    6.4664 O.3       1 <0>        -0.3731
     18 C15         2.4249   -6.8564    5.2360 C.3       1 <0>         0.0573
     19 C16         1.3860   -6.7228    4.1168 C.3       1 <0>        -0.1133
     20 N3         -2.3756   -6.6828    4.2363 N.am      1 <0>        -0.6528
     21 C17        -3.6941   -6.7891    4.4945 C.2       1 <0>         0.6091
     22 O2         -4.4842   -6.0482    3.9403 O.2       1 <0>        -0.4922
     23 C18        -4.1775   -7.7999    5.4456 C.2       1 <0>        -0.0514
     24 C19        -5.4833   -8.0125    5.7886 C.2       1 <0>        -0.1069
     25 C20        -5.4974   -9.0599    6.7164 C.2       1 <0>        -0.1306
     26 C21        -4.1881   -9.4454    6.9017 C.2       1 <0>         0.0876
     27 O3         -3.4085   -8.6755    6.1205 O.3       1 <0>        -0.1444
     28 C22        -3.7352  -10.4894    7.7710 C.1       1 <0>         0.2752
     29 N4         -3.3759  -11.3176    8.4605 N.1       1 <0>        -0.3472
     30 H1          0.9459    1.7824   -0.1607 H         1 <0>         0.1250
     31 H2         -0.5905    1.7221   -1.0574 H         1 <0>         0.1254
     32 H3         -0.5994    1.7569    0.7222 H         1 <0>         0.1216
     33 H4         -1.9105   -0.3045    0.7795 H         1 <0>         0.1326
     34 H5         -1.9387   -0.2058   -0.9977 H         1 <0>         0.1413
     35 H6         -2.3695   -2.5326   -0.1262 H         1 <0>         0.1276
     36 H7         -0.9329   -2.4348   -1.1786 H         1 <0>         0.0883
     37 H8          1.2405   -2.3906    1.9997 H         1 <0>         0.1249
     38 H9          1.4597   -2.3407    0.2304 H         1 <0>         0.0877
     39 H10         1.6577   -0.0644    1.1202 H         1 <0>         0.1406
     40 H11         0.0975   -0.2255    1.9619 H         1 <0>         0.1322
     41 H12        -2.9371   -3.7047    0.8490 H         1 <0>         0.1287
     42 H13        -3.7563   -5.4864    2.3296 H         1 <0>         0.1619
     43 H14         0.8798   -3.8291    2.7694 H         1 <0>         0.1286
     44 H15        -0.6844   -4.7640    6.0571 H         1 <0>         0.1194
     45 H16         1.6715   -5.1877    7.2450 H         1 <0>         0.0700
     46 H17         0.3550   -6.2656    7.7597 H         1 <0>         0.1090
     47 H18         3.0029   -5.9358    5.3164 H         1 <0>         0.0567
     48 H19         3.0899   -7.6923    5.0191 H         1 <0>         0.1026
     49 H20         0.9506   -7.6988    3.9025 H         1 <0>         0.0861
     50 H21         1.8695   -6.3366    3.2195 H         1 <0>         0.0840
     51 H22        -1.7513   -7.3095    4.6344 H         1 <0>         0.4199
     52 H23        -6.3415   -7.4739    5.4148 H         1 <0>         0.1781
     53 H24        -6.3675   -9.4842    7.1952 H         1 <0>         0.1783
     54 H25         0.4611   -0.4152   -0.9431 H         1 <0>         0.4248
@<TRIPOS>BOND
     1    1    2 1
     2    1   30 1
     3    1   31 1
     4    1   32 1
     5    2    7 1
     6    2    3 1
     7    2   54 1
     8    3    4 1
     9    3   33 1
    10    3   34 1
    11    4    5 1
    12    4   35 1
    13    4   36 1
    14    5    6 1
    15    5    8 1
    16    6    7 1
    17    6   37 1
    18    6   38 1
    19    7   39 1
    20    7   40 1
    21    8   13 ar
    22    8    9 ar
    23    9   10 ar
    24    9   41 1
    25   10   11 ar
    26   10   42 1
    27   11   12 ar
    28   11   20 1
    29   12   13 ar
    30   12   14 1
    31   13   43 1
    32   14   19 1
    33   14   15 2
    34   15   16 1
    35   15   44 1
    36   16   17 1
    37   16   45 1
    38   16   46 1
    39   17   18 1
    40   18   19 1
    41   18   47 1
    42   18   48 1
    43   19   49 1
    44   19   50 1
    45   20   21 am
    46   20   51 1
    47   21   22 2
    48   21   23 1
    49   23   27 1
    50   23   24 2
    51   24   25 1
    52   24   52 1
    53   25   26 2
    54   25   53 1
    55   26   27 1
    56   26   28 1
    57   28   29 3
@<TRIPOS>MOLECULE
CHEMBL427775__1
   53    56     0     0     0
SMALL
USER_CHARGES

@<TRIPOS>ATOM
      1 C1         -0.0649    1.3951   -0.1640 C.3       1 <0>         0.0242
      2 N1         -0.0258   -0.0731   -0.1344 N.3       1 <0>        -0.5424
      3 C2         -1.3781   -0.6379   -0.2347 C.3       1 <0>         0.0379
      4 C3         -1.2827   -2.1601   -0.3828 C.3       1 <0>         0.1252
      5 N2         -0.4691   -2.6870    0.7234 N.pl3     1 <0>        -0.6303
      6 C4          0.8453   -2.0761    0.9729 C.3       1 <0>         0.1263
      7 C5          0.6661   -0.5572    1.0676 C.3       1 <0>         0.0386
      8 C6         -0.9330   -3.7417    1.5170 C.ar      1 <0>         0.2143
      9 C7         -2.2204   -4.2340    1.3330 C.ar      1 <0>        -0.1787
     10 C8         -2.6862   -5.2744    2.1123 C.ar      1 <0>        -0.0768
     11 C9         -1.8712   -5.8357    3.0845 C.ar      1 <0>         0.0903
     12 C10        -0.5726   -5.3445    3.2748 C.ar      1 <0>        -0.0253
     13 C11        -0.1066   -4.2971    2.4808 C.ar      1 <0>        -0.1691
     14 C12         0.3006   -5.9373    4.3080 C.2       1 <0>        -0.0821
     15 C13         0.0695   -5.6554    5.5737 C.2       1 <0>        -0.1741
     16 C14         0.9090   -6.2045    6.6925 C.3       1 <0>         0.0889
     17 O1          1.6955   -7.3014    6.2235 O.3       1 <0>        -0.3768
     18 C15         2.4232   -6.9998    5.0266 C.3       1 <0>         0.0580
     19 C16         1.4190   -6.8468    3.8786 C.3       1 <0>        -0.1144
     20 N3         -2.3444   -6.8884    3.8728 N.am      1 <0>        -0.6457
     21 C17        -3.6681   -7.0311    4.0826 C.2       1 <0>         0.6010
     22 O2         -4.4555   -6.2866    3.5291 O.2       1 <0>        -0.4933
     23 C18        -4.1605   -8.0858    4.9799 C.2       1 <0>        -0.0383
     24 C19        -5.4718   -8.3376    5.2710 C.2       1 <0>        -0.1163
     25 C20        -5.4937   -9.4184    6.1594 C.2       1 <0>        -0.1289
     26 C21        -4.1831   -9.7835    6.3746 C.2       1 <0>         0.0759
     27 O3         -3.3952   -8.9696    5.6483 O.3       1 <0>        -0.1432
     28 C22        -3.7365  -10.8493    7.2204 C.1       1 <0>         0.2811
     29 N4         -3.3822  -11.6947    7.8914 N.1       1 <0>        -0.3566
     30 H1          0.9526    1.7858   -0.1652 H         1 <0>         0.0707
     31 H2         -0.5825    1.7267   -1.0641 H         1 <0>         0.0707
     32 H3         -0.5940    1.7623    0.7155 H         1 <0>         0.0259
     33 H4         -1.9416   -0.3947    0.6661 H         1 <0>         0.0388
     34 H5         -1.8837   -0.2188   -1.1047 H         1 <0>         0.0865
     35 H6         -2.2812   -2.5953   -0.3425 H         1 <0>         0.0881
     36 H7         -0.8109   -2.4066   -1.3340 H         1 <0>         0.0713
     37 H8          1.2537   -2.4557    1.9096 H         1 <0>         0.0851
     38 H9          1.5217   -2.3145    0.1521 H         1 <0>         0.0707
     39 H10         1.6430   -0.0795    1.1422 H         1 <0>         0.0858
     40 H11         0.0741   -0.3151    1.9503 H         1 <0>         0.0383
     41 H12        -2.8588   -3.8005    0.5775 H         1 <0>         0.1281
     42 H13        -3.6874   -5.6517    1.9648 H         1 <0>         0.1553
     43 H14         0.8946   -3.9166    2.6197 H         1 <0>         0.1277
     44 H15        -0.7562   -5.0031    5.8171 H         1 <0>         0.1188
     45 H16         1.5680   -5.4215    7.0677 H         1 <0>         0.0670
     46 H17         0.2591   -6.5444    7.4988 H         1 <0>         0.1052
     47 H18         2.9781   -6.0711    5.1594 H         1 <0>         0.0569
     48 H19         3.1130   -7.8134    4.8024 H         1 <0>         0.1001
     49 H20         1.0122   -7.8230    3.6149 H         1 <0>         0.0846
     50 H21         1.9233   -6.4181    3.0125 H         1 <0>         0.0863
     51 H22        -1.7201   -7.5163    4.2689 H         1 <0>         0.4156
     52 H23        -6.3288   -7.8033    4.8881 H         1 <0>         0.1772
     53 H24        -6.3697   -9.8777    6.5931 H         1 <0>         0.1758
@<TRIPOS>BOND
     1    1    2 1
     2    1   30 1
     3    1   31 1
     4    1   32 1
     5    2    7 1
     6    2    3 1
     7    3    4 1
     8    3   33 1
     9    3   34 1
    10    4    5 1
    11    4   35 1
    12    4   36 1
    13    5    6 1
    14    5    8 1
    15    6    7 1
    16    6   37 1
    17    6   38 1
    18    7   39 1
    19    7   40 1
    20    8   13 ar
    21    8    9 ar
    22    9   10 ar
    23    9   41 1
    24   10   11 ar
    25   10   42 1
    26   11   12 ar
    27   11   20 1
    28   12   13 ar
    29   12   14 1
    30   13   43 1
    31   14   19 1
    32   14   15 2
    33   15   16 1
    34   15   44 1
    35   16   17 1
    36   16   45 1
    37   16   46 1
    38   17   18 1
    39   18   19 1
    40   18   47 1
    41   18   48 1
    42   19   49 1
    43   19   50 1
    44   20   21 am
    45   20   51 1
    46   21   22 2
    47   21   23 1
    48   23   27 1
    49   23   24 2
    50   24   25 1
    51   24   52 1
    52   25   26 2
    53   25   53 1
    54   26   27 1
    55   26   28 1
    56   28   29 3
@<TRIPOS>MOLECULE
CHEMBL265433
   52    55     0     0     0
SMALL
USER_CHARGES

@<TRIPOS>ATOM
      1 C1         -0.0212    1.4666    0.0282 C.3       1 <0>        -0.0736
      2 C2          0.0399   -0.0375   -0.0432 C.2       1 <0>        -0.1195
      3 C3         -0.9862   -0.9401   -0.0704 C.2       1 <0>        -0.1134
      4 C4         -0.6767   -2.2952   -0.1385 C.2       1 <0>        -0.1438
      5 C5          0.6218   -2.6705   -0.1752 C.2       1 <0>        -0.1713
      6 S1          1.4708   -1.1016   -0.1221 S.3       1 <0>         0.0624
      7 C6         -2.3977   -0.4856   -0.0279 C.ar      1 <0>         0.0077
      8 C7         -3.2007   -0.8019    1.0643 C.ar      1 <0>        -0.1543
      9 C8         -4.5192   -0.3740    1.0991 C.ar      1 <0>         0.1893
     10 C9         -5.0394    0.3689    0.0458 C.ar      1 <0>        -0.1634
     11 C10        -4.2468    0.6855   -1.0403 C.ar      1 <0>        -0.0677
     12 C11        -2.9250    0.2676   -1.0828 C.ar      1 <0>         0.1219
     13 N1         -2.1217    0.5936   -2.1814 N.am      1 <0>        -0.6565
     14 C12        -2.2971    1.7676   -2.8196 C.2       1 <0>         0.6070
     15 O1         -3.0805    2.5882   -2.3797 O.2       1 <0>        -0.4908
     16 C13        -1.5420    2.0568   -4.0471 C.2       1 <0>        -0.0513
     17 C14        -1.6242    3.2061   -4.7820 C.2       1 <0>        -0.1077
     18 C15        -0.7438    3.0661   -5.8605 C.2       1 <0>        -0.1298
     19 C16        -0.1567    1.8262   -5.7369 C.2       1 <0>         0.0860
     20 O2         -0.6493    1.2360   -4.6324 O.3       1 <0>        -0.1449
     21 C17         0.8140    1.2642   -6.6272 C.1       1 <0>         0.2755
     22 N2          1.5840    0.8185   -7.3335 N.1       1 <0>        -0.3481
     23 N3         -5.3275   -0.6911    2.1960 N.pl3     1 <0>        -0.6442
     24 C18        -4.8373   -1.5719    3.2673 C.3       1 <0>         0.0991
     25 C19        -5.0862   -0.8841    4.6137 C.3       1 <0>        -0.0234
     26 N4         -6.5062   -0.5272    4.7248 N.4       1 <0>        -0.3837
     27 C20        -6.8531    0.4682    3.7026 C.3       1 <0>        -0.0232
     28 C21        -6.6897   -0.1481    2.3138 C.3       1 <0>         0.0994
     29 C22        -6.7658    0.0320    6.0582 C.3       1 <0>        -0.0470
     30 H1          0.9907    1.8718    0.0269 H         1 <0>         0.0771
     31 H2         -0.5670    1.8494   -0.8342 H         1 <0>         0.0780
     32 H3         -0.5314    1.7665    0.9435 H         1 <0>         0.0816
     33 H4         -1.4621   -3.0362   -0.1613 H         1 <0>         0.1348
     34 H5          1.0387   -3.6655   -0.2275 H         1 <0>         0.1891
     35 H6         -2.7977   -1.3797    1.8829 H         1 <0>         0.1288
     36 H7         -6.0670    0.6996    0.0765 H         1 <0>         0.1292
     37 H8         -4.6560    1.2630   -1.8560 H         1 <0>         0.1431
     38 H9         -1.4386   -0.0253   -2.4834 H         1 <0>         0.4183
     39 H10        -2.2504    4.0603   -4.5706 H         1 <0>         0.1781
     40 H11        -0.5605    3.7905   -6.6403 H         1 <0>         0.1781
     41 H12        -5.3736   -2.5204    3.2359 H         1 <0>         0.0882
     42 H13        -3.7693   -1.7472    3.1375 H         1 <0>         0.1260
     43 H14        -4.8175   -1.5624    5.4235 H         1 <0>         0.1406
     44 H15        -4.4784    0.0184    4.6786 H         1 <0>         0.1325
     45 H16        -7.8864    0.7864    3.8410 H         1 <0>         0.1415
     46 H17        -6.1919    1.3298    3.7950 H         1 <0>         0.1326
     47 H18        -6.8458    0.6175    1.5539 H         1 <0>         0.1274
     48 H19        -7.4162   -0.9503    2.1845 H         1 <0>         0.0877
     49 H20        -6.1542    0.9223    6.2042 H         1 <0>         0.1216
     50 H21        -7.8197    0.2974    6.1419 H         1 <0>         0.1253
     51 H22        -6.5162   -0.7089    6.8177 H         1 <0>         0.1249
     52 H23        -7.0706   -1.3532    4.5934 H         1 <0>         0.4247
@<TRIPOS>BOND
     1    1    2 1
     2    1   30 1
     3    1   31 1
     4    1   32 1
     5    2    6 1
     6    2    3 2
     7    3    4 1
     8    3    7 1
     9    4    5 2
    10    4   33 1
    11    5    6 1
    12    5   34 1
    13    7   12 ar
    14    7    8 ar
    15    8    9 ar
    16    8   35 1
    17    9   10 ar
    18    9   23 1
    19   10   11 ar
    20   10   36 1
    21   11   12 ar
    22   11   37 1
    23   12   13 1
    24   13   14 am
    25   13   38 1
    26   14   15 2
    27   14   16 1
    28   16   20 1
    29   16   17 2
    30   17   18 1
    31   17   39 1
    32   18   19 2
    33   18   40 1
    34   19   20 1
    35   19   21 1
    36   21   22 3
    37   23   28 1
    38   23   24 1
    39   24   25 1
    40   24   41 1
    41   24   42 1
    42   25   26 1
    43   25   43 1
    44   25   44 1
    45   26   27 1
    46   26   29 1
    47   26   52 1
    48   27   28 1
    49   27   45 1
    50   27   46 1
    51   28   47 1
    52   28   48 1
    53   29   49 1
    54   29   50 1
    55   29   51 1
@<TRIPOS>MOLECULE
CHEMBL265433__1
   51    54     0     0     0
SMALL
USER_CHARGES

@<TRIPOS>ATOM
      1 C1         -0.0212    1.4672    0.0280 C.3       1 <0>        -0.0722
      2 C2          0.0430   -0.0366   -0.0461 C.2       1 <0>        -0.1182
      3 C3         -0.9812   -0.9414   -0.0740 C.2       1 <0>        -0.1025
      4 C4         -0.6688   -2.2957   -0.1446 C.2       1 <0>        -0.1379
      5 C5          0.6305   -2.6682   -0.1831 C.2       1 <0>        -0.1761
      6 S1          1.4762   -1.0975   -0.1279 S.3       1 <0>         0.0425
      7 C6         -2.3935   -0.4900   -0.0294 C.ar      1 <0>         0.0066
      8 C7         -3.1950   -0.8099    1.0629 C.ar      1 <0>        -0.1689
      9 C8         -4.5144   -0.3850    1.0994 C.ar      1 <0>         0.2182
     10 C9         -5.0370    0.3587    0.0478 C.ar      1 <0>        -0.1798
     11 C10        -4.2461    0.6788   -1.0383 C.ar      1 <0>        -0.0622
     12 C11        -2.9233    0.2638   -1.0826 C.ar      1 <0>         0.0912
     13 N1         -2.1217    0.5935   -2.1813 N.am      1 <0>        -0.6494
     14 C12        -2.3001    1.7683   -2.8174 C.2       1 <0>         0.5993
     15 O1         -3.0850    2.5863   -2.3754 O.2       1 <0>        -0.4909
     16 C13        -1.5467    2.0612   -4.0450 C.2       1 <0>        -0.0386
     17 C14        -1.6320    3.2116   -4.7778 C.2       1 <0>        -0.1166
     18 C15        -0.7522    3.0753   -5.8573 C.2       1 <0>        -0.1282
     19 C16        -0.1623    1.8364   -5.7363 C.2       1 <0>         0.0746
     20 O2         -0.6527    1.2433   -4.6325 O.3       1 <0>        -0.1437
     21 C17         0.8088    1.2781   -6.6284 C.1       1 <0>         0.2813
     22 N2          1.5792    0.8352   -7.3361 N.1       1 <0>        -0.3575
     23 N3         -5.3211   -0.7056    2.1964 N.pl3     1 <0>        -0.6294
     24 C18        -6.6858   -0.1694    2.3123 C.3       1 <0>         0.1251
     25 C19        -7.6450   -1.3337    2.5821 C.3       1 <0>         0.0383
     26 N4         -7.1742   -2.0915    3.7492 N.3       1 <0>        -0.5424
     27 C20        -5.8594   -2.6962    3.4968 C.3       1 <0>         0.0388
     28 C21        -4.8293   -1.5928    3.2615 C.3       1 <0>         0.1258
     29 C22        -8.1550   -3.1105    4.1458 C.3       1 <0>         0.0243
     30 H1          0.9898    1.8746    0.0266 H         1 <0>         0.0735
     31 H2         -0.5685    1.8503   -0.8332 H         1 <0>         0.0778
     32 H3         -0.5314    1.7644    0.9443 H         1 <0>         0.0839
     33 H4         -1.4526   -3.0383   -0.1681 H         1 <0>         0.1348
     34 H5          1.0495   -3.6621   -0.2374 H         1 <0>         0.1865
     35 H6         -2.7901   -1.3883    1.8801 H         1 <0>         0.1281
     36 H7         -6.0654    0.6871    0.0800 H         1 <0>         0.1284
     37 H8         -4.6572    1.2569   -1.8527 H         1 <0>         0.1363
     38 H9         -1.4375   -0.0234   -2.4850 H         1 <0>         0.4138
     39 H10        -2.2598    4.0640   -4.5645 H         1 <0>         0.1774
     40 H11        -0.5711    3.8014   -6.6360 H         1 <0>         0.1757
     41 H12        -6.7312    0.5411    3.1376 H         1 <0>         0.0716
     42 H13        -6.9645    0.3266    1.3826 H         1 <0>         0.0881
     43 H14        -8.6435   -0.9439    2.7801 H         1 <0>         0.0864
     44 H15        -7.6759   -1.9887    1.7114 H         1 <0>         0.0388
     45 H16        -5.5630   -3.2947    4.3583 H         1 <0>         0.0862
     46 H17        -5.9152   -3.3323    2.6134 H         1 <0>         0.0380
     47 H18        -3.8811   -2.0372    2.9590 H         1 <0>         0.0858
     48 H19        -4.6928   -1.0216    4.1798 H         1 <0>         0.0705
     49 H20        -8.3131   -3.8037    3.3196 H         1 <0>         0.0258
     50 H21        -7.7814   -3.6567    5.0120 H         1 <0>         0.0703
     51 H22        -9.0983   -2.6273    4.4002 H         1 <0>         0.0710
@<TRIPOS>BOND
     1    1    2 1
     2    1   30 1
     3    1   31 1
     4    1   32 1
     5    2    6 1
     6    2    3 2
     7    3    4 1
     8    3    7 1
     9    4    5 2
    10    4   33 1
    11    5    6 1
    12    5   34 1
    13    7   12 ar
    14    7    8 ar
    15    8    9 ar
    16    8   35 1
    17    9   10 ar
    18    9   23 1
    19   10   11 ar
    20   10   36 1
    21   11   12 ar
    22   11   37 1
    23   12   13 1
    24   13   14 am
    25   13   38 1
    26   14   15 2
    27   14   16 1
    28   16   20 1
    29   16   17 2
    30   17   18 1
    31   17   39 1
    32   18   19 2
    33   18   40 1
    34   19   20 1
    35   19   21 1
    36   21   22 3
    37   23   28 1
    38   23   24 1
    39   24   25 1
    40   24   41 1
    41   24   42 1
    42   25   26 1
    43   25   43 1
    44   25   44 1
    45   26   27 1
    46   26   29 1
    47   27   28 1
    48   27   45 1
    49   27   46 1
    50   28   47 1
    51   28   48 1
    52   29   49 1
    53   29   50 1
    54   29   51 1
@<TRIPOS>MOLECULE
CHEMBL249957
   54    57     0     0     0
SMALL
USER_CHARGES

@<TRIPOS>ATOM
      1 C1          0.0176    1.1015   -0.0066 C.ar      1 <0>        -0.2083
      2 C2          1.1299    1.9222    0.0175 C.ar      1 <0>        -0.0535
      3 C3          2.4012    1.3697    0.0048 C.ar      1 <0>         0.0852
      4 C4          2.5579   -0.0160   -0.0318 C.ar      1 <0>         0.1837
      5 C5          1.4409   -0.8369   -0.0554 C.ar      1 <0>        -0.2061
      6 C6          0.1701   -0.2780   -0.0430 C.ar      1 <0>         0.2385
      7 N1         -0.9583   -1.1060   -0.0669 N.pl3     1 <0>        -0.6252
      8 C7         -0.8173   -2.5661    0.0168 C.3       1 <0>         0.1206
      9 C8         -1.6937   -3.0813    1.1628 C.3       1 <0>        -0.1369
     10 C9         -3.1315   -2.5995    0.9563 C.3       1 <0>        -0.1195
     11 C10        -3.1659   -1.0695    0.9722 C.3       1 <0>        -0.1374
     12 C11        -2.3065   -0.5313   -0.1699 C.3       1 <0>         0.1203
     13 N2          3.8408   -0.5766   -0.0451 N.am      1 <0>        -0.6467
     14 C12         4.0346   -1.8037   -0.5678 C.2       1 <0>         0.6012
     15 O1          3.1169   -2.3820   -1.1191 O.2       1 <0>        -0.4870
     16 C13         5.3545   -2.4434   -0.4719 C.2       1 <0>        -0.0384
     17 C14         5.6811   -3.6760   -0.9633 C.2       1 <0>        -0.1160
     18 C15         7.0288   -3.8948   -0.6571 C.2       1 <0>        -0.1281
     19 C16         7.4712   -2.7764    0.0143 C.2       1 <0>         0.0753
     20 O2          6.4457   -1.9104    0.1100 O.3       1 <0>        -0.1443
     21 C17         8.7953   -2.5688    0.5187 C.1       1 <0>         0.2813
     22 N3          9.8456   -2.4042    0.9188 N.1       1 <0>        -0.3569
     23 N4          3.5286    2.2029    0.0283 N.pl3     1 <0>        -0.6701
     24 C18         4.1288    2.6858   -1.2228 C.3       1 <0>         0.1454
     25 C19         4.2322    4.2131   -1.1627 C.3       1 <0>        -0.1363
     26 C20         4.9970    4.6194    0.0991 C.3       1 <0>        -0.1159
     27 C21         4.2357    4.1378    1.3363 C.3       1 <0>        -0.1360
     28 C22         4.1287    2.6146    1.3047 C.3       1 <0>         0.1413
     29 H1         -0.9719    1.5341    0.0074 H         1 <0>         0.1241
     30 H2          1.0082    2.9950    0.0458 H         1 <0>         0.1243
     31 H3          1.5593   -1.9100   -0.0841 H         1 <0>         0.1487
     32 H4         -1.1391   -3.0186   -0.9212 H         1 <0>         0.0620
     33 H5          0.2245   -2.8221    0.2099 H         1 <0>         0.0841
     34 H6         -1.6733   -4.1710    1.1748 H         1 <0>         0.0730
     35 H7         -1.3146   -2.6994    2.1107 H         1 <0>         0.0655
     36 H8         -3.5015   -2.9611   -0.0031 H         1 <0>         0.0634
     37 H9         -3.7623   -2.9852    1.7573 H         1 <0>         0.0639
     38 H10        -4.1934   -0.7274    0.8485 H         1 <0>         0.0731
     39 H11        -2.7729   -0.7066    1.9219 H         1 <0>         0.0660
     40 H12        -2.2470    0.5549   -0.0998 H         1 <0>         0.0837
     41 H13        -2.7525   -0.8141   -1.1234 H         1 <0>         0.0616
     42 H14         4.5901   -0.0819    0.3219 H         1 <0>         0.4180
     43 H15         5.0236   -4.3529   -1.4886 H         1 <0>         0.1773
     44 H16         7.6101   -4.7720   -0.9000 H         1 <0>         0.1761
     45 H17         5.1238    2.2566   -1.3403 H         1 <0>         0.0454
     46 H18         3.5012    2.3949   -2.0652 H         1 <0>         0.0678
     47 H19         4.7628    4.5767   -2.0427 H         1 <0>         0.0654
     48 H20         3.2316    4.6447   -1.1365 H         1 <0>         0.0637
     49 H21         5.9886    4.1672    0.0840 H         1 <0>         0.0597
     50 H22         5.0933    5.7046    0.1316 H         1 <0>         0.0592
     51 H23         4.7689    4.4478    2.2350 H         1 <0>         0.0660
     52 H24         3.2351    4.5701    1.3390 H         1 <0>         0.0637
     53 H25         3.5011    2.2767    2.1294 H         1 <0>         0.0687
     54 H26         5.1237    2.1794    1.3979 H         1 <0>         0.0454
@<TRIPOS>BOND
     1    1    6 ar
     2    1    2 ar
     3    1   29 1
     4    2    3 ar
     5    2   30 1
     6    3    4 ar
     7    3   23 1
     8    4    5 ar
     9    4   13 1
    10    5    6 ar
    11    5   31 1
    12    6    7 1
    13    7   12 1
    14    7    8 1
    15    8    9 1
    16    8   32 1
    17    8   33 1
    18    9   10 1
    19    9   34 1
    20    9   35 1
    21   10   11 1
    22   10   36 1
    23   10   37 1
    24   11   12 1
    25   11   38 1
    26   11   39 1
    27   12   40 1
    28   12   41 1
    29   13   14 am
    30   13   42 1
    31   14   15 2
    32   14   16 1
    33   16   20 1
    34   16   17 2
    35   17   18 1
    36   17   43 1
    37   18   19 2
    38   18   44 1
    39   19   20 1
    40   19   21 1
    41   21   22 3
    42   23   28 1
    43   23   24 1
    44   24   25 1
    45   24   45 1
    46   24   46 1
    47   25   26 1
    48   25   47 1
    49   25   48 1
    50   26   27 1
    51   26   49 1
    52   26   50 1
    53   27   28 1
    54   27   51 1
    55   27   52 1
    56   28   53 1
    57   28   54 1
@<TRIPOS>MOLECULE
CHEMBL162
   62    69     0     0     0
SMALL
USER_CHARGES

@<TRIPOS>ATOM
      1 C1         -0.1276    1.5938   -0.2902 C.3       1 <0>        -0.1687
      2 C2         -0.0844    0.0680   -0.1855 C.3       1 <0>         0.3345
      3 C3          0.5692   -0.4497   -1.4608 C.3       1 <0>         0.0405
      4 H1          1.4795    0.1163   -1.6584 H         1 <0>         0.1372
      5 C4          0.9165   -1.9328   -1.2885 C.3       1 <0>        -0.0062
      6 H2          1.3941   -2.3067   -2.1942 H         1 <0>         0.1555
      7 C5          1.8808   -2.0612   -0.1039 C.3       1 <0>        -0.1828
      8 C6          1.2106   -1.5234    1.1545 C.3       1 <0>         0.3001
      9 O1          0.6584   -0.2480    0.9698 O.3       1 <0>        -0.3232
     10 N1          0.2248   -2.4800    1.6600 N.pl3     1 <0>        -0.5368
     11 C7          0.4774   -3.5588    2.4701 C.ar      1 <0>         0.1470
     12 C8          1.6719   -4.0282    3.0159 C.ar      1 <0>        -0.1521
     13 C9          1.6013   -5.1613    3.8083 C.ar      1 <0>        -0.0582
     14 C10         0.4065   -5.8141    4.0588 C.ar      1 <0>        -0.1457
     15 C11        -0.7928   -5.3694    3.5296 C.ar      1 <0>        -0.0281
     16 C12        -0.7420   -4.2270    2.7281 C.ar      1 <0>        -0.1133
     17 C13        -1.7834   -3.4873    2.0211 C.ar      1 <0>         0.0272
     18 C14        -1.1387   -2.4235    1.3862 C.ar      1 <0>         0.0375
     19 C15        -1.8766   -1.5121    0.6225 C.ar      1 <0>         0.0893
     20 N2         -1.4701   -0.3965   -0.1042 N.pl3     1 <0>        -0.5183
     21 C16        -2.5609    0.1893   -0.7020 C.ar      1 <0>         0.1620
     22 C17        -2.6555    1.3256   -1.5046 C.ar      1 <0>        -0.1301
     23 C18        -3.9158    1.6704   -1.9636 C.ar      1 <0>        -0.0737
     24 C19        -5.0430    0.9315   -1.6503 C.ar      1 <0>        -0.1357
     25 C20        -4.9749   -0.2010   -0.8555 C.ar      1 <0>        -0.0503
     26 C21        -3.7134   -0.5626   -0.3834 C.ar      1 <0>        -0.1044
     27 C22        -3.2655   -1.6685    0.4924 C.ar      1 <0>        -0.0362
     28 C23        -3.9045   -2.7331    1.1195 C.ar      1 <0>        -0.0289
     29 C24        -3.1819   -3.6452    1.8815 C.ar      1 <0>        -0.1255
     30 C25        -4.1160   -4.6505    2.4114 C.2       1 <0>         0.5633
     31 O2         -3.7988   -5.5888    3.1172 O.2       1 <0>        -0.5106
     32 N3         -5.3694   -4.3854    2.0058 N.am      1 <0>        -0.7162
     33 C26        -5.3459   -3.1769    1.1740 C.3       1 <0>         0.1359
     34 N4         -0.3065   -2.7008   -1.0194 N.4       1 <0>        -0.5253
     35 C27         0.0148   -4.1335   -0.9747 C.3       1 <0>        -0.0497
     36 O3         -0.3352   -0.2957   -2.5564 O.3       1 <0>        -0.3613
     37 C28         0.3074   -0.0892   -3.8159 C.3       1 <0>         0.0162
     38 H3          0.8308    2.0068    0.0247 H         1 <0>         0.0984
     39 H4         -0.3256    1.8817   -1.3227 H         1 <0>         0.1037
     40 H5         -0.9185    1.9799    0.3528 H         1 <0>         0.0921
     41 H6          2.1400   -3.1098    0.0419 H         1 <0>         0.1233
     42 H7          2.7852   -1.4878   -0.3076 H         1 <0>         0.1455
     43 H8          1.9835   -1.4379    1.9183 H         1 <0>         0.1550
     44 H9          2.6113   -3.5296    2.8282 H         1 <0>         0.1364
     45 H10         2.5093   -5.5494    4.2456 H         1 <0>         0.1359
     46 H11         0.4102   -6.6943    4.6846 H         1 <0>         0.1352
     47 H12        -1.7231   -5.8814    3.7271 H         1 <0>         0.1602
     48 H13        -1.7841    1.9115   -1.7569 H         1 <0>         0.1438
     49 H14        -4.0225    2.5459   -2.5869 H         1 <0>         0.1335
     50 H15        -6.0015    1.2460   -2.0361 H         1 <0>         0.1333
     51 H16        -5.8562   -0.7761   -0.6128 H         1 <0>         0.1416
     52 H17        -6.1577   -4.9060    2.2257 H         1 <0>         0.4348
     53 H18        -5.9609   -2.3989    1.6262 H         1 <0>         0.1115
     54 H19        -5.7062   -3.4047    0.1708 H         1 <0>         0.1104
     55 H20        -0.6946   -2.4153   -0.1328 H         1 <0>         0.4186
     56 H21         0.7414   -4.3184   -0.1836 H         1 <0>         0.1191
     57 H22        -0.8927   -4.7033   -0.7750 H         1 <0>         0.1256
     58 H23         0.4340   -4.4418   -1.9324 H         1 <0>         0.1255
     59 H24        -0.4469    0.0185   -4.5954 H         1 <0>         0.1100
     60 H25         0.9142    0.8152   -3.7703 H         1 <0>         0.0633
     61 H26         0.9451   -0.9435   -4.0429 H         1 <0>         0.0514
     62 H27        -0.9792   -2.5296   -1.7517 H         1 <0>         0.4274
@<TRIPOS>BOND
     1    1    2 1
     2    1   38 1
     3    1   39 1
     4    1   40 1
     5    2    9 1
     6    2   20 1
     7    2    3 1
     8    3    4 1
     9    3    5 1
    10    3   36 1
    11    5    6 1
    12    5    7 1
    13    5   34 1
    14    7    8 1
    15    7   41 1
    16    7   42 1
    17    8    9 1
    18    8   10 1
    19    8   43 1
    20   10   18 1
    21   10   11 1
    22   11   16 ar
    23   11   12 ar
    24   12   13 ar
    25   12   44 1
    26   13   14 ar
    27   13   45 1
    28   14   15 ar
    29   14   46 1
    30   15   16 ar
    31   15   47 1
    32   16   17 1
    33   17   29 ar
    34   17   18 ar
    35   18   19 ar
    36   19   27 ar
    37   19   20 1
    38   20   21 1
    39   21   26 ar
    40   21   22 ar
    41   22   23 ar
    42   22   48 1
    43   23   24 ar
    44   23   49 1
    45   24   25 ar
    46   24   50 1
    47   25   26 ar
    48   25   51 1
    49   26   27 1
    50   27   28 ar
    51   28   33 1
    52   28   29 ar
    53   29   30 1
    54   30   31 2
    55   30   32 am
    56   32   33 1
    57   32   52 1
    58   33   53 1
    59   33   54 1
    60   34   35 1
    61   34   55 1
    62   34   62 1
    63   35   56 1
    64   35   57 1
    65   35   58 1
    66   36   37 1
    67   37   59 1
    68   37   60 1
    69   37   61 1
@<TRIPOS>MOLECULE
CHEMBL162__1
   61    68     0     0     0
SMALL
USER_CHARGES

@<TRIPOS>ATOM
      1 C1         -0.0567    1.5513   -0.0894 C.3       1 <0>        -0.1681
      2 C2         -0.0278    0.0218   -0.0599 C.3       1 <0>         0.3623
      3 C3          0.5811   -0.4397   -1.3782 C.3       1 <0>         0.0679
      4 H1          1.4914    0.1262   -1.5761 H         1 <0>         0.0865
      5 C4          0.9165   -1.9328   -1.2885 C.3       1 <0>         0.0550
      6 H2          1.3622   -2.2669   -2.2254 H         1 <0>         0.0644
      7 C5          1.9146   -2.1282   -0.1417 C.3       1 <0>        -0.1713
      8 C6          1.2889   -1.6457    1.1613 C.3       1 <0>         0.3303
      9 O1          0.7459   -0.3574    1.0554 O.3       1 <0>        -0.3432
     10 N1          0.3079   -2.6158    1.6500 N.pl3     1 <0>        -0.5147
     11 C7          0.5725   -3.7353    2.3988 C.ar      1 <0>         0.1480
     12 C8          1.7775   -4.2425    2.8844 C.ar      1 <0>        -0.1567
     13 C9          1.7179   -5.4120    3.6229 C.ar      1 <0>        -0.0771
     14 C10         0.5239   -6.0644    3.8782 C.ar      1 <0>        -0.1623
     15 C11        -0.6857   -5.5826    3.4081 C.ar      1 <0>        -0.0380
     16 C12        -0.6461   -4.4031    2.6615 C.ar      1 <0>        -0.1052
     17 C13        -1.6998   -3.6196    2.0235 C.ar      1 <0>        -0.0146
     18 C14        -1.0625   -2.5326    1.4212 C.ar      1 <0>         0.1328
     19 C15        -1.8127   -1.5778    0.7254 C.ar      1 <0>         0.2189
     20 N2         -1.4156   -0.4323    0.0413 N.pl3     1 <0>        -0.4798
     21 C16        -2.5171    0.1927   -0.4937 C.ar      1 <0>         0.1719
     22 C17        -2.6230    1.3676   -1.2371 C.ar      1 <0>        -0.1371
     23 C18        -3.8926    1.7468   -1.6400 C.ar      1 <0>        -0.0918
     24 C19        -5.0181    1.0048   -1.3284 C.ar      1 <0>        -0.1543
     25 C20        -4.9390   -0.1657   -0.5916 C.ar      1 <0>        -0.0609
     26 C21        -3.6680   -0.5623   -0.1765 C.ar      1 <0>        -0.0961
     27 C22        -3.2066   -1.7140    0.6307 C.ar      1 <0>        -0.0806
     28 C23        -3.8384   -2.8014    1.2249 C.ar      1 <0>        -0.0396
     29 C24        -3.1037   -3.7566    1.9194 C.ar      1 <0>        -0.1488
     30 C25        -4.0327   -4.7771    2.4285 C.2       1 <0>         0.5678
     31 O2         -3.7051   -5.7517    3.0781 O.2       1 <0>        -0.5303
     32 N3         -5.2947   -4.4802    2.0748 N.am      1 <0>        -0.7263
     33 C26        -5.2825   -3.2330    1.3021 C.3       1 <0>         0.1443
     34 N4         -0.3065   -2.7008   -1.0194 N.3       1 <0>        -0.6725
     35 C27        -0.9816   -3.0711   -2.2704 C.3       1 <0>         0.0321
     36 O3         -0.3541   -0.2236   -2.4368 O.3       1 <0>        -0.3500
     37 C28         0.2525    0.0376   -3.7040 C.3       1 <0>         0.0254
     38 H3          0.9143    1.9390    0.2190 H         1 <0>         0.0847
     39 H4         -0.2789    1.8910   -1.1010 H         1 <0>         0.0945
     40 H5         -0.8258    1.9134    0.5927 H         1 <0>         0.0811
     41 H6          2.1661   -3.1852   -0.0547 H         1 <0>         0.0955
     42 H7          2.8189   -1.5546   -0.3450 H         1 <0>         0.1024
     43 H8          2.0854   -1.6051    1.9042 H         1 <0>         0.1256
     44 H9          2.7165   -3.7447    2.6923 H         1 <0>         0.1264
     45 H10         2.6343   -5.8299    4.0129 H         1 <0>         0.1227
     46 H11         0.5364   -6.9739    4.4603 H         1 <0>         0.1222
     47 H12        -1.6153   -6.0942    3.6091 H         1 <0>         0.1517
     48 H13        -1.7529    1.9564   -1.4875 H         1 <0>         0.1345
     49 H14        -4.0081    2.6526   -2.2167 H         1 <0>         0.1197
     50 H15        -5.9842    1.3471   -1.6689 H         1 <0>         0.1193
     51 H16        -5.8191   -0.7431   -0.3501 H         1 <0>         0.1299
     52 H17        -6.0819   -5.0031    2.2935 H         1 <0>         0.4244
     53 H18        -5.8747   -2.4718    1.8101 H         1 <0>         0.0969
     54 H19        -5.6755   -3.4081    0.3006 H         1 <0>         0.0963
     55 H20        -0.1054   -3.5172   -0.4616 H         1 <0>         0.3444
     56 H21        -1.8838   -3.6387   -2.0422 H         1 <0>         0.0645
     57 H22        -1.2495   -2.1685   -2.8197 H         1 <0>         0.0818
     58 H23        -0.3126   -3.6808   -2.8776 H         1 <0>         0.0150
     59 H24        -0.5237    0.1905   -4.4538 H         1 <0>         0.0929
     60 H25         0.8707    0.9325   -3.6333 H         1 <0>         0.0448
     61 H26         0.8732   -0.8111   -3.9915 H         1 <0>         0.0400
@<TRIPOS>BOND
     1    1    2 1
     2    1   38 1
     3    1   39 1
     4    1   40 1
     5    2    9 1
     6    2   20 1
     7    2    3 1
     8    3    4 1
     9    3    5 1
    10    3   36 1
    11    5    6 1
    12    5    7 1
    13    5   34 1
    14    7    8 1
    15    7   41 1
    16    7   42 1
    17    8    9 1
    18    8   10 1
    19    8   43 1
    20   10   18 1
    21   10   11 1
    22   11   16 ar
    23   11   12 ar
    24   12   13 ar
    25   12   44 1
    26   13   14 ar
    27   13   45 1
    28   14   15 ar
    29   14   46 1
    30   15   16 ar
    31   15   47 1
    32   16   17 1
    33   17   29 ar
    34   17   18 ar
    35   18   19 ar
    36   19   27 ar
    37   19   20 1
    38   20   21 1
    39   21   26 ar
    40   21   22 ar
    41   22   23 ar
    42   22   48 1
    43   23   24 ar
    44   23   49 1
    45   24   25 ar
    46   24   50 1
    47   25   26 ar
    48   25   51 1
    49   26   27 1
    50   27   28 ar
    51   28   33 1
    52   28   29 ar
    53   29   30 1
    54   30   31 2
    55   30   32 am
    56   32   33 1
    57   32   52 1
    58   33   53 1
    59   33   54 1
    60   34   35 1
    61   34   55 1
    62   35   56 1
    63   35   57 1
    64   35   58 1
    65   36   37 1
    66   37   59 1
    67   37   60 1
    68   37   61 1
@<TRIPOS>MOLECULE
CHEMBL265432
   56    59     0     0     0
SMALL
USER_CHARGES

@<TRIPOS>ATOM
      1 C1         -0.0713    1.3906   -0.1582 C.3       1 <0>        -0.0471
      2 N1         -0.0305   -0.0775   -0.1293 N.4       1 <0>        -0.3836
      3 C2         -1.4014   -0.6036   -0.1368 C.3       1 <0>        -0.0236
      4 C3         -1.3600   -2.1330   -0.2223 C.3       1 <0>         0.0994
      5 N2         -0.5214   -2.6389    0.8754 N.pl3     1 <0>        -0.6449
      6 C4          0.8132   -2.0475    1.0574 C.3       1 <0>         0.1000
      7 C5          0.6692   -0.5222    1.0826 C.3       1 <0>        -0.0230
      8 C6         -0.9799   -3.6541    1.7218 C.ar      1 <0>         0.1849
      9 C7         -2.2825   -4.1246    1.5984 C.ar      1 <0>        -0.1651
     10 C8         -2.7432   -5.1259    2.4301 C.ar      1 <0>        -0.0829
     11 C9         -1.9076   -5.6696    3.3949 C.ar      1 <0>         0.1178
     12 C10        -0.5936   -5.2003    3.5243 C.ar      1 <0>        -0.0224
     13 C11        -0.1332   -4.1923    2.6776 C.ar      1 <0>        -0.1544
     14 C12         0.3016   -5.7745    4.5492 C.2       1 <0>        -0.1079
     15 C13         0.1062   -5.4333    5.8007 C.2       1 <0>        -0.1171
     16 C14         0.9430   -5.9309    6.9431 C.3       1 <0>        -0.0946
     17 C15         1.7333   -7.1697    6.5167 C.3       1 <0>        -0.1245
     18 C16         2.4414   -6.8627    5.1913 C.3       1 <0>        -0.1199
     19 C17         1.3776   -6.7187    4.0985 C.3       1 <0>        -0.0762
     20 N3         -2.3756   -6.6828    4.2363 N.am      1 <0>        -0.6514
     21 C18        -3.6941   -6.7891    4.4945 C.2       1 <0>         0.6081
     22 O1         -4.4842   -6.0482    3.9403 O.2       1 <0>        -0.4923
     23 C19        -4.1775   -7.7999    5.4456 C.2       1 <0>        -0.0496
     24 C20        -5.4833   -8.0125    5.7886 C.2       1 <0>        -0.1078
     25 C21        -5.4974   -9.0599    6.7164 C.2       1 <0>        -0.1295
     26 C22        -4.1881   -9.4454    6.9017 C.2       1 <0>         0.0851
     27 O2         -3.4085   -8.6755    6.1205 O.3       1 <0>        -0.1453
     28 C23        -3.7352  -10.4894    7.7710 C.1       1 <0>         0.2759
     29 N4         -3.3759  -11.3176    8.4605 N.1       1 <0>        -0.3485
     30 H1          0.9459    1.7824   -0.1608 H         1 <0>         0.1249
     31 H2         -0.5905    1.7221   -1.0575 H         1 <0>         0.1252
     32 H3         -0.5994    1.7569    0.7221 H         1 <0>         0.1215
     33 H4         -1.9105   -0.3045    0.7795 H         1 <0>         0.1325
     34 H5         -1.9387   -0.2059   -0.9977 H         1 <0>         0.1409
     35 H6         -2.3695   -2.5326   -0.1262 H         1 <0>         0.1275
     36 H7         -0.9329   -2.4349   -1.1786 H         1 <0>         0.0878
     37 H8          1.2404   -2.3906    1.9997 H         1 <0>         0.1254
     38 H9          1.4597   -2.3407    0.2304 H         1 <0>         0.0874
     39 H10         1.6577   -0.0644    1.1202 H         1 <0>         0.1404
     40 H11         0.0975   -0.2255    1.9619 H         1 <0>         0.1322
     41 H12        -2.9371   -3.7047    0.8489 H         1 <0>         0.1277
     42 H13        -3.7563   -5.4864    2.3296 H         1 <0>         0.1607
     43 H14         0.8797   -3.8291    2.7695 H         1 <0>         0.1284
     44 H15        -0.7039   -4.7543    6.0220 H         1 <0>         0.1047
     45 H16         1.6363   -5.1482    7.2509 H         1 <0>         0.0793
     46 H17         0.2947   -6.1867    7.7812 H         1 <0>         0.0771
     47 H18         2.4731   -7.4126    7.2794 H         1 <0>         0.0699
     48 H19         1.0524   -8.0102    6.3820 H         1 <0>         0.0657
     49 H20         3.0050   -5.9344    5.2836 H         1 <0>         0.0654
     50 H21         3.1161   -7.6806    4.9385 H         1 <0>         0.0698
     51 H22         0.9377   -7.6933    3.8868 H         1 <0>         0.0743
     52 H23         1.8432   -6.3302    3.1927 H         1 <0>         0.0716
     53 H24        -1.7513   -7.3095    4.6344 H         1 <0>         0.4189
     54 H25        -6.3415   -7.4739    5.4148 H         1 <0>         0.1781
     55 H26        -6.3675   -9.4842    7.1952 H         1 <0>         0.1781
     56 H27         0.4611   -0.4152   -0.9431 H         1 <0>         0.4246
@<TRIPOS>BOND
     1    1    2 1
     2    1   30 1
     3    1   31 1
     4    1   32 1
     5    2    7 1
     6    2    3 1
     7    2   56 1
     8    3    4 1
     9    3   33 1
    10    3   34 1
    11    4    5 1
    12    4   35 1
    13    4   36 1
    14    5    6 1
    15    5    8 1
    16    6    7 1
    17    6   37 1
    18    6   38 1
    19    7   39 1
    20    7   40 1
    21    8   13 ar
    22    8    9 ar
    23    9   10 ar
    24    9   41 1
    25   10   11 ar
    26   10   42 1
    27   11   12 ar
    28   11   20 1
    29   12   13 ar
    30   12   14 1
    31   13   43 1
    32   14   19 1
    33   14   15 2
    34   15   16 1
    35   15   44 1
    36   16   17 1
    37   16   45 1
    38   16   46 1
    39   17   18 1
    40   17   47 1
    41   17   48 1
    42   18   19 1
    43   18   49 1
    44   18   50 1
    45   19   51 1
    46   19   52 1
    47   20   21 am
    48   20   53 1
    49   21   22 2
    50   21   23 1
    51   23   27 1
    52   23   24 2
    53   24   25 1
    54   24   54 1
    55   25   26 2
    56   25   55 1
    57   26   27 1
    58   26   28 1
    59   28   29 3
@<TRIPOS>MOLECULE
CHEMBL265432__1
   55    58     0     0     0
SMALL
USER_CHARGES

@<TRIPOS>ATOM
      1 C1         -0.0650    1.3951   -0.1640 C.3       1 <0>         0.0242
      2 N1         -0.0258   -0.0731   -0.1344 N.3       1 <0>        -0.5424
      3 C2         -1.3782   -0.6379   -0.2348 C.3       1 <0>         0.0380
      4 C3         -1.2827   -2.1601   -0.3828 C.3       1 <0>         0.1254
      5 N2         -0.4691   -2.6870    0.7234 N.pl3     1 <0>        -0.6305
      6 C4          0.8453   -2.0761    0.9729 C.3       1 <0>         0.1264
      7 C5          0.6660   -0.5572    1.0676 C.3       1 <0>         0.0387
      8 C6         -0.9330   -3.7417    1.5170 C.ar      1 <0>         0.2142
      9 C7         -2.2203   -4.2340    1.3330 C.ar      1 <0>        -0.1814
     10 C8         -2.6862   -5.2744    2.1123 C.ar      1 <0>        -0.0769
     11 C9         -1.8712   -5.8357    3.0845 C.ar      1 <0>         0.0867
     12 C10        -0.5726   -5.3445    3.2748 C.ar      1 <0>        -0.0223
     13 C11        -0.1067   -4.2971    2.4808 C.ar      1 <0>        -0.1702
     14 C12         0.3006   -5.9373    4.3080 C.2       1 <0>        -0.0948
     15 C13         0.0568   -5.6462    5.5637 C.2       1 <0>        -0.1297
     16 C14         0.8661   -6.1680    6.7150 C.3       1 <0>        -0.0911
     17 C15         1.6969   -7.3739    6.2712 C.3       1 <0>        -0.1224
     18 C16         2.4413   -7.0042    4.9823 C.3       1 <0>        -0.1196
     19 C17         1.4112   -6.8422    3.8602 C.3       1 <0>        -0.0776
     20 N3         -2.3444   -6.8884    3.8728 N.am      1 <0>        -0.6441
     21 C18        -3.6681   -7.0311    4.0826 C.2       1 <0>         0.5999
     22 O1         -4.4555   -6.2866    3.5291 O.2       1 <0>        -0.4933
     23 C19        -4.1605   -8.0858    4.9799 C.2       1 <0>        -0.0364
     24 C20        -5.4718   -8.3376    5.2710 C.2       1 <0>        -0.1172
     25 C21        -5.4937   -9.4184    6.1594 C.2       1 <0>        -0.1278
     26 C22        -4.1831   -9.7835    6.3746 C.2       1 <0>         0.0736
     27 O2         -3.3952   -8.9696    5.6483 O.3       1 <0>        -0.1441
     28 C23        -3.7365  -10.8493    7.2204 C.1       1 <0>         0.2817
     29 N4         -3.3822  -11.6947    7.8914 N.1       1 <0>        -0.3579
     30 H1          0.9526    1.7858   -0.1652 H         1 <0>         0.0706
     31 H2         -0.5826    1.7267   -1.0641 H         1 <0>         0.0705
     32 H3         -0.5940    1.7622    0.7154 H         1 <0>         0.0258
     33 H4         -1.9416   -0.3947    0.6660 H         1 <0>         0.0387
     34 H5         -1.8837   -0.2188   -1.1047 H         1 <0>         0.0861
     35 H6         -2.2812   -2.5953   -0.3426 H         1 <0>         0.0879
     36 H7         -0.8109   -2.4066   -1.3340 H         1 <0>         0.0708
     37 H8          1.2537   -2.4557    1.9096 H         1 <0>         0.0856
     38 H9          1.5217   -2.3145    0.1521 H         1 <0>         0.0703
     39 H10         1.6430   -0.0795    1.1422 H         1 <0>         0.0856
     40 H11         0.0741   -0.3151    1.9503 H         1 <0>         0.0383
     41 H12        -2.8588   -3.8005    0.5775 H         1 <0>         0.1271
     42 H13        -3.6873   -5.6517    1.9648 H         1 <0>         0.1541
     43 H14         0.8945   -3.9166    2.6197 H         1 <0>         0.1275
     44 H15        -0.7748   -4.9926    5.7818 H         1 <0>         0.1045
     45 H16         1.5318   -5.3830    7.0738 H         1 <0>         0.0767
     46 H17         0.1964   -6.4675    7.5211 H         1 <0>         0.0731
     47 H18         2.4163   -7.6293    7.0492 H         1 <0>         0.0663
     48 H19         1.0392   -8.2227    6.0837 H         1 <0>         0.0640
     49 H20         2.9812   -6.0684    5.1268 H         1 <0>         0.0658
     50 H21         3.1416   -7.7982    4.7232 H         1 <0>         0.0672
     51 H22         0.9998   -7.8172    3.5990 H         1 <0>         0.0729
     52 H23         1.8977   -6.4113    2.9851 H         1 <0>         0.0742
     53 H24        -1.7201   -7.5163    4.2689 H         1 <0>         0.4146
     54 H25        -6.3288   -7.8033    4.8881 H         1 <0>         0.1772
     55 H26        -6.3697   -9.8777    6.5931 H         1 <0>         0.1757
@<TRIPOS>BOND
     1    1    2 1
     2    1   30 1
     3    1   31 1
     4    1   32 1
     5    2    7 1
     6    2    3 1
     7    3    4 1
     8    3   33 1
     9    3   34 1
    10    4    5 1
    11    4   35 1
    12    4   36 1
    13    5    6 1
    14    5    8 1
    15    6    7 1
    16    6   37 1
    17    6   38 1
    18    7   39 1
    19    7   40 1
    20    8   13 ar
    21    8    9 ar
    22    9   10 ar
    23    9   41 1
    24   10   11 ar
    25   10   42 1
    26   11   12 ar
    27   11   20 1
    28   12   13 ar
    29   12   14 1
    30   13   43 1
    31   14   19 1
    32   14   15 2
    33   15   16 1
    34   15   44 1
    35   16   17 1
    36   16   45 1
    37   16   46 1
    38   17   18 1
    39   17   47 1
    40   17   48 1
    41   18   19 1
    42   18   49 1
    43   18   50 1
    44   19   51 1
    45   19   52 1
    46   20   21 am
    47   20   53 1
    48   21   22 2
    49   21   23 1
    50   23   27 1
    51   23   24 2
    52   24   25 1
    53   24   54 1
    54   25   26 2
    55   25   55 1
    56   26   27 1
    57   26   28 1
    58   28   29 3
@<TRIPOS>MOLECULE
CHEMBL406375
   28    31     0     0     0
SMALL
USER_CHARGES

@<TRIPOS>ATOM
      1 C1         -0.0167    1.3790    0.0096 C.ar      1 <0>        -0.1062
      2 C2          1.1686    2.0920    0.0021 C.ar      1 <0>        -0.1212
      3 C3          2.3774    1.4260   -0.0130 C.ar      1 <0>        -0.0859
      4 C4          2.4023    0.0328   -0.0207 C.ar      1 <0>        -0.0282
      5 C5          1.2051   -0.6804   -0.0131 C.ar      1 <0>        -0.0880
      6 C6          0.0021   -0.0041    0.0020 C.ar      1 <0>        -0.1191
      7 C7          3.6985   -0.6887   -0.0375 C.2       1 <0>         0.1620
      8 C8          3.9676   -1.9172    0.6064 C.2       1 <0>        -0.0526
      9 C9          5.2862   -2.2350    0.3397 C.2       1 <0>         0.0466
     10 C10         5.5400   -3.5131    1.0187 C.ar      1 <0>        -0.1120
     11 C11         6.6507   -4.3465    1.1341 C.ar      1 <0>        -0.0589
     12 C12         6.5578   -5.5106    1.8655 C.ar      1 <0>        -0.1396
     13 C13         5.3649   -5.8527    2.4841 C.ar      1 <0>        -0.0732
     14 C14         4.2589   -5.0364    2.3774 C.ar      1 <0>        -0.1165
     15 C15         4.3318   -3.8579    1.6449 C.ar      1 <0>         0.1046
     16 O1          3.4293   -2.8904    1.3768 O.3       1 <0>        -0.1733
     17 N1          5.8008   -1.2376   -0.4374 N.pl3     1 <0>        -0.4440
     18 H1          6.7072   -1.1918   -0.7798 H         1 <0>         0.4495
     19 N2          4.7885   -0.2951   -0.6588 N.2       1 <0>        -0.2315
     20 H2         -0.9603    1.9042    0.0260 H         1 <0>         0.1266
     21 H3          1.1482    3.1718    0.0078 H         1 <0>         0.1287
     22 H4          3.3023    1.9837   -0.0192 H         1 <0>         0.1289
     23 H5          1.2186   -1.7603   -0.0194 H         1 <0>         0.1267
     24 H6         -0.9264   -0.5557    0.0079 H         1 <0>         0.1290
     25 H7          7.5801   -4.0814    0.6521 H         1 <0>         0.1298
     26 H8          7.4168   -6.1589    1.9569 H         1 <0>         0.1358
     27 H9          5.3014   -6.7675    3.0547 H         1 <0>         0.1415
     28 H10         3.3350   -5.3134    2.8633 H         1 <0>         0.1402
@<TRIPOS>BOND
     1    1    6 ar
     2    1    2 ar
     3    1   20 1
     4    2    3 ar
     5    2   21 1
     6    3    4 ar
     7    3   22 1
     8    4    5 ar
     9    4    7 1
    10    5    6 ar
    11    5   23 1
    12    6   24 1
    13    7   19 2
    14    7    8 1
    15    8   16 1
    16    8    9 2
    17    9   10 1
    18    9   17 1
    19   10   15 ar
    20   10   11 ar
    21   11   12 ar
    22   11   25 1
    23   12   13 ar
    24   12   26 1
    25   13   14 ar
    26   13   27 1
    27   14   15 ar
    28   14   28 1
    29   15   16 1
    30   17   18 1
    31   17   19 1
@<TRIPOS>MOLECULE
CHEMBL406375__1
   28    31     0     0     0
SMALL
USER_CHARGES

@<TRIPOS>ATOM
      1 C1         -0.0167    1.3794    0.0096 C.ar      1 <0>        -0.1049
      2 C2          1.1683    2.0935    0.0021 C.ar      1 <0>        -0.1167
      3 C3          2.3774    1.4292   -0.0130 C.ar      1 <0>        -0.1009
      4 C4          2.4034    0.0337   -0.0208 C.ar      1 <0>        -0.0407
      5 C5          1.2043   -0.6806   -0.0131 C.ar      1 <0>        -0.0842
      6 C6          0.0021   -0.0041    0.0020 C.ar      1 <0>        -0.1154
      7 C7          3.6953   -0.6846   -0.0375 C.2       1 <0>         0.1443
      8 C8          4.0351   -1.7740    0.7405 C.2       1 <0>        -0.0541
      9 C9          5.3566   -2.1352    0.3988 C.2       1 <0>         0.0556
     10 C10         5.6777   -3.3000    1.2515 C.ar      1 <0>        -0.0996
     11 C11         6.8008   -4.1063    1.3955 C.ar      1 <0>        -0.0467
     12 C12         6.7863   -5.1440    2.3048 C.ar      1 <0>        -0.1445
     13 C13         5.6566   -5.3809    3.0709 C.ar      1 <0>        -0.0699
     14 C14         4.5371   -4.5866    2.9349 C.ar      1 <0>        -0.1234
     15 C15         4.5340   -3.5366    2.0243 C.ar      1 <0>         0.1134
     16 O1          3.5930   -2.6229    1.6977 O.3       1 <0>        -0.1859
     17 N1          5.7875   -1.3114   -0.5306 N.2       1 <0>        -0.2371
     18 H1          4.8202    0.3184   -1.4822 H         1 <0>         0.4552
     19 N2          4.7696   -0.3968   -0.8288 N.pl3     1 <0>        -0.4373
     20 H2         -0.9605    1.9041    0.0260 H         1 <0>         0.1284
     21 H3          1.1468    3.1732    0.0078 H         1 <0>         0.1299
     22 H4          3.3017    1.9878   -0.0192 H         1 <0>         0.1251
     23 H5          1.2176   -1.7605   -0.0191 H         1 <0>         0.1287
     24 H6         -0.9265   -0.5556    0.0079 H         1 <0>         0.1309
     25 H7          7.6811   -3.9214    0.7978 H         1 <0>         0.1335
     26 H8          7.6569   -5.7727    2.4192 H         1 <0>         0.1362
     27 H9          5.6523   -6.1949    3.7806 H         1 <0>         0.1410
     28 H10         3.6618   -4.7810    3.5369 H         1 <0>         0.1390
@<TRIPOS>BOND
     1    1    6 ar
     2    1    2 ar
     3    1   20 1
     4    2    3 ar
     5    2   21 1
     6    3    4 ar
     7    3   22 1
     8    4    5 ar
     9    4    7 1
    10    5    6 ar
    11    5   23 1
    12    6   24 1
    13    7    8 2
    14    7   19 1
    15    8   16 1
    16    8    9 1
    17    9   10 1
    18    9   17 2
    19   10   15 ar
    20   10   11 ar
    21   11   12 ar
    22   11   25 1
    23   12   13 ar
    24   12   26 1
    25   13   14 ar
    26   13   27 1
    27   14   15 ar
    28   14   28 1
    29   15   16 1
    30   17   19 1
    31   18   19 1
@<TRIPOS>MOLECULE
CHEMBL515867
   41    43     0     0     0
SMALL
USER_CHARGES

@<TRIPOS>ATOM
      1 C1         -0.1446    1.1783   -0.2389 C.3       1 <0>        -0.1676
      2 C2         -0.1087   -0.3376   -0.0346 C.3       1 <0>         0.1924
      3 H1          0.3641   -0.8092   -0.8961 H         1 <0>         0.0952
      4 C3          0.6796   -0.6583    1.2091 C.ar      1 <0>        -0.0760
      5 C4          0.0847   -0.5447    2.4525 C.ar      1 <0>        -0.1221
      6 C5          0.8044   -0.8380    3.5960 C.ar      1 <0>        -0.0917
      7 C6          2.1208   -1.2452    3.4999 C.ar      1 <0>        -0.1137
      8 C7          2.7211   -1.3604    2.2530 C.ar      1 <0>         0.1501
      9 C8          1.9934   -1.0708    1.1057 C.ar      1 <0>        -0.1285
     10 N1          4.0537   -1.7725    2.1522 N.am      1 <0>        -0.6674
     11 C9          4.5552   -2.6548    3.0391 C.2       1 <0>         0.5685
     12 O1          3.8261   -3.1654    3.8670 O.2       1 <0>        -0.5036
     13 C10         5.9916   -3.0015    3.0050 C.ar      1 <0>        -0.1863
     14 C11         6.5238   -3.9210    3.9171 C.ar      1 <0>         0.0166
     15 C12         7.8753   -4.2116    3.8426 C.ar      1 <0>        -0.1559
     16 C13         8.6495   -3.5896    2.8780 C.ar      1 <0>         0.1625
     17 N2          8.1198   -2.7272    2.0319 N.ar      1 <0>        -0.4723
     18 C14         6.8390   -2.4224    2.0597 C.ar      1 <0>         0.1513
     19 Br1         8.6556   -5.4442    5.0458 Br        1 <0>        -0.0126
     20 N3         -1.4759   -0.8434    0.1098 N.pl3     1 <0>        -0.7048
     21 C15        -2.2274   -1.1474   -1.0193 C.ar      1 <0>         0.3818
     22 C16        -1.6802   -0.9772   -2.2890 C.ar      1 <0>        -0.0088
     23 N4         -2.3962   -1.2671   -3.3586 N.ar      1 <0>        -0.3828
     24 C17        -3.6320   -1.7189   -3.2270 C.ar      1 <0>         0.0004
     25 C18        -4.1796   -1.8895   -1.9681 C.ar      1 <0>         0.1814
     26 N5         -3.4658   -1.6056   -0.8904 N.ar      1 <0>        -0.5022
     27 Cl1        -5.8027   -2.4823   -1.8016 Cl        1 <0>        -0.0114
     28 H2          0.8727    1.5546   -0.3464 H         1 <0>         0.0756
     29 H3         -0.7147    1.4102   -1.1385 H         1 <0>         0.0660
     30 H4         -0.6173    1.6499    0.6226 H         1 <0>         0.0669
     31 H5         -0.9442   -0.2257    2.5304 H         1 <0>         0.1244
     32 H6          0.3370   -0.7482    4.5654 H         1 <0>         0.1314
     33 H7          2.6827   -1.4735    4.3935 H         1 <0>         0.1370
     34 H8          2.4559   -1.1640    0.1342 H         1 <0>         0.1314
     35 H9          4.6171   -1.4234    1.4439 H         1 <0>         0.4121
     36 H10         5.8962   -4.3912    4.6598 H         1 <0>         0.1609
     37 H11         9.7042   -3.8138    2.8175 H         1 <0>         0.1753
     38 H12         6.4416   -1.7149    1.3470 H         1 <0>         0.1668
     39 H13        -1.8568   -0.9663    0.9934 H         1 <0>         0.4099
     40 H14        -0.6711   -0.6080   -2.3977 H         1 <0>         0.1725
     41 H15        -4.2155   -1.9549   -4.1046 H         1 <0>         0.1770
@<TRIPOS>BOND
     1    1    2 1
     2    1   28 1
     3    1   29 1
     4    1   30 1
     5    2    3 1
     6    2    4 1
     7    2   20 1
     8    4    9 ar
     9    4    5 ar
    10    5    6 ar
    11    5   31 1
    12    6    7 ar
    13    6   32 1
    14    7    8 ar
    15    7   33 1
    16    8    9 ar
    17    8   10 1
    18    9   34 1
    19   10   11 am
    20   10   35 1
    21   11   12 2
    22   11   13 1
    23   13   18 ar
    24   13   14 ar
    25   14   15 ar
    26   14   36 1
    27   15   16 ar
    28   15   19 1
    29   16   17 ar
    30   16   37 1
    31   17   18 ar
    32   18   38 1
    33   20   21 1
    34   20   39 1
    35   21   26 ar
    36   21   22 ar
    37   22   23 ar
    38   22   40 1
    39   23   24 ar
    40   24   25 ar
    41   24   41 1
    42   25   26 ar
    43   25   27 1
@<TRIPOS>MOLECULE
CHEMBL1087662
   57    60     0     0     0
SMALL
USER_CHARGES

@<TRIPOS>ATOM
      1 C1         -0.0178    1.4608    0.0101 C.3       1 <0>         0.0980
      2 N1          0.0021   -0.0041    0.0020 N.pl3     1 <0>        -0.3716
      3 C2          0.0078   -0.7882   -1.0944 C.2       1 <0>         0.1012
      4 C3          0.0273   -2.0864   -0.6734 C.2       1 <0>        -0.1967
      5 C4          0.0335   -2.0757    0.7355 C.2       1 <0>         0.0718
      6 N2          0.0245   -0.8307    1.1318 N.2       1 <0>        -0.2925
      7 C5          0.0390   -3.2897   -1.5413 C.ar      1 <0>         0.1453
      8 C6          0.0531   -4.5583   -0.9708 C.ar      1 <0>         0.0706
      9 N3          0.0635   -5.6321   -1.7422 N.ar      1 <0>        -0.4677
     10 C7          0.0601   -5.5027   -3.0610 C.ar      1 <0>         0.3507
     11 C8          0.0454   -4.2281   -3.6384 C.ar      1 <0>         0.2383
     12 N4          0.0304   -3.1549   -2.8662 N.ar      1 <0>        -0.4669
     13 O1          0.0419   -4.0937   -4.9892 O.3       1 <0>        -0.3069
     14 C9          0.0268   -2.7626   -5.5087 C.3       1 <0>         0.1335
     15 C10         0.0250   -2.8112   -7.0149 C.ar      1 <0>         0.1250
     16 C11         0.0315   -4.0341   -7.6567 C.ar      1 <0>        -0.2058
     17 C12         0.0298   -4.0695   -9.0468 C.ar      1 <0>         0.1433
     18 C13         0.0215   -2.8565   -9.7398 C.ar      1 <0>         0.0528
     19 C14         0.0153   -1.6736   -9.0218 C.ar      1 <0>         0.0541
     20 N5          0.0118   -1.6853   -7.7018 N.ar      1 <0>        -0.4640
     21 O2          0.0200   -2.8385  -11.0997 O.3       1 <0>        -0.2922
     22 C15         0.0113   -1.5568  -11.7316 C.3       1 <0>         0.1021
     23 C16         0.0108   -1.7345  -13.2280 C.ar      1 <0>        -0.1365
     24 C17         1.2087   -1.8140  -13.9140 C.ar      1 <0>        -0.0523
     25 C18         1.2110   -1.9764  -15.2858 C.ar      1 <0>        -0.1551
     26 C19         0.0100   -2.0602  -15.9752 C.ar      1 <0>         0.1400
     27 C20        -1.1906   -1.9805  -15.2846 C.ar      1 <0>        -0.2121
     28 C21        -1.1875   -1.8233  -13.9121 C.ar      1 <0>        -0.0515
     29 O3          0.0096   -2.2195  -17.3249 O.3       1 <0>        -0.3159
     30 C22        -1.2639   -2.2979  -17.9685 C.3       1 <0>         0.0254
     31 O4          0.0365   -5.2528   -9.7137 O.3       1 <0>        -0.2969
     32 C23         0.0453   -6.4431   -8.9229 C.3       1 <0>         0.0219
     33 N6          0.0715   -6.6347   -3.8720 N.pl3     1 <0>        -0.8373
     34 H1          1.0048    1.8381    0.0023 H         1 <0>         0.0786
     35 H2         -0.5450    1.8219   -0.8730 H         1 <0>         0.0907
     36 H3         -0.5280    1.8123    0.9069 H         1 <0>         0.0925
     37 H4         -0.0018   -0.4504   -2.1202 H         1 <0>         0.1824
     38 H5          0.0482   -2.9451    1.3762 H         1 <0>         0.1898
     39 H6          0.0558   -4.6663    0.1038 H         1 <0>         0.1724
     40 H7         -0.8683   -2.2469   -5.1608 H         1 <0>         0.0912
     41 H8          0.9116   -2.2278   -5.1635 H         1 <0>         0.0913
     42 H9          0.0382   -4.9511   -7.0863 H         1 <0>         0.1529
     43 H10         0.0092   -0.7301   -9.5473 H         1 <0>         0.1694
     44 H11        -0.8818   -1.0093  -11.4304 H         1 <0>         0.0733
     45 H12         0.8981   -0.9982  -11.4323 H         1 <0>         0.0742
     46 H13         2.1434   -1.7488  -13.3768 H         1 <0>         0.1324
     47 H14         2.1469   -2.0378  -15.8213 H         1 <0>         0.1349
     48 H15        -2.1268   -2.0454  -15.8190 H         1 <0>         0.1317
     49 H16        -2.1218   -1.7657  -13.3735 H         1 <0>         0.1277
     50 H17        -1.1214   -2.4244  -19.0417 H         1 <0>         0.1025
     51 H18        -1.8191   -3.1485  -17.5730 H         1 <0>         0.0573
     52 H19        -1.8225   -1.3808  -17.7816 H         1 <0>         0.0573
     53 H20         0.0500   -7.3144   -9.5779 H         1 <0>         0.1060
     54 H21         0.9362   -6.4556   -8.2951 H         1 <0>         0.0597
     55 H22        -0.8437   -6.4671   -8.2927 H         1 <0>         0.0594
     56 H23         0.0820   -7.5181   -3.4716 H         1 <0>         0.4080
     57 H24         0.0690   -6.5397   -4.8374 H         1 <0>         0.4122
@<TRIPOS>BOND
     1    1    2 1
     2    1   34 1
     3    1   35 1
     4    1   36 1
     5    2    6 1
     6    2    3 1
     7    3    4 2
     8    3   37 1
     9    4    5 1
    10    4    7 1
    11    5    6 2
    12    5   38 1
    13    7   12 ar
    14    7    8 ar
    15    8    9 ar
    16    8   39 1
    17    9   10 ar
    18   10   11 ar
    19   10   33 1
    20   11   12 ar
    21   11   13 1
    22   13   14 1
    23   14   15 1
    24   14   40 1
    25   14   41 1
    26   15   20 ar
    27   15   16 ar
    28   16   17 ar
    29   16   42 1
    30   17   18 ar
    31   17   31 1
    32   18   19 ar
    33   18   21 1
    34   19   20 ar
    35   19   43 1
    36   21   22 1
    37   22   23 1
    38   22   44 1
    39   22   45 1
    40   23   28 ar
    41   23   24 ar
    42   24   25 ar
    43   24   46 1
    44   25   26 ar
    45   25   47 1
    46   26   27 ar
    47   26   29 1
    48   27   28 ar
    49   27   48 1
    50   28   49 1
    51   29   30 1
    52   30   50 1
    53   30   51 1
    54   30   52 1
    55   31   32 1
    56   32   53 1
    57   32   54 1
    58   32   55 1
    59   33   56 1
    60   33   57 1
@<TRIPOS>MOLECULE
CHEMBL1087662__1
   58    61     0     0     0
SMALL
USER_CHARGES

@<TRIPOS>ATOM
      1 C1         -0.0178    1.4608    0.0101 C.3       1 <0>         0.0955
      2 N1          0.0021   -0.0041    0.0020 N.pl3     1 <0>        -0.3679
      3 C2          0.0078   -0.7882   -1.0944 C.2       1 <0>         0.0995
      4 C3          0.0273   -2.0864   -0.6734 C.2       1 <0>        -0.2027
      5 C4          0.0335   -2.0757    0.7355 C.2       1 <0>         0.0743
      6 N2          0.0245   -0.8307    1.1318 N.2       1 <0>        -0.2837
      7 C5          0.0390   -3.2897   -1.5413 C.ar      1 <0>         0.1519
      8 C6          0.0531   -4.5583   -0.9708 C.ar      1 <0>         0.0913
      9 N3          0.0635   -5.6321   -1.7422 N.ar      1 <0>        -0.4602
     10 C7          0.0601   -5.5027   -3.0610 C.ar      1 <0>         0.3610
     11 C8          0.0454   -4.2281   -3.6384 C.ar      1 <0>         0.2163
     12 N4          0.0304   -3.1549   -2.8662 N.ar      1 <0>        -0.4679
     13 O1          0.0419   -4.0937   -4.9892 O.3       1 <0>        -0.3014
     14 C9          0.0268   -2.7626   -5.5087 C.3       1 <0>         0.0979
     15 C10         0.0250   -2.8112   -7.0149 C.ar      1 <0>         0.1777
     16 C11         0.0315   -4.0341   -7.6567 C.ar      1 <0>        -0.1841
     17 C12         0.0298   -4.0695   -9.0468 C.ar      1 <0>         0.2328
     18 C13         0.0215   -2.8565   -9.7398 C.ar      1 <0>         0.1100
     19 C14         0.0153   -1.6736   -9.0218 C.ar      1 <0>         0.0440
     20 N5          0.0118   -1.6853   -7.7018 N.ar      1 <0>        -0.4357
     21 O2          0.0200   -2.8385  -11.0997 O.3       1 <0>        -0.2632
     22 C15         0.0113   -1.5568  -11.7316 C.3       1 <0>         0.0951
     23 C16         0.0108   -1.7345  -13.2280 C.ar      1 <0>        -0.1588
     24 C17         1.2087   -1.8140  -13.9140 C.ar      1 <0>        -0.0475
     25 C18         1.2110   -1.9764  -15.2858 C.ar      1 <0>        -0.1549
     26 C19         0.0100   -2.0602  -15.9752 C.ar      1 <0>         0.1553
     27 C20        -1.1906   -1.9805  -15.2846 C.ar      1 <0>        -0.2125
     28 C21        -1.1875   -1.8233  -13.9121 C.ar      1 <0>        -0.0460
     29 O3          0.0096   -2.2195  -17.3249 O.3       1 <0>        -0.3113
     30 C22        -1.2639   -2.2979  -17.9685 C.3       1 <0>         0.0231
     31 O4          0.0365   -5.2528   -9.7137 O.3       1 <0>        -0.2603
     32 C23         0.0453   -6.4431   -8.9229 C.3       1 <0>         0.0041
     33 N6          0.0715   -6.6347   -3.8720 N.pl3     1 <0>        -0.8361
     34 H1          1.0048    1.8381    0.0023 H         1 <0>         0.0812
     35 H2         -0.5450    1.8219   -0.8730 H         1 <0>         0.0902
     36 H3         -0.5280    1.8123    0.9069 H         1 <0>         0.0963
     37 H4         -0.0018   -0.4504   -2.1202 H         1 <0>         0.1782
     38 H5          0.0482   -2.9451    1.3762 H         1 <0>         0.1923
     39 H6          0.0558   -4.6663    0.1038 H         1 <0>         0.1797
     40 H7         -0.8683   -2.2469   -5.1608 H         1 <0>         0.1176
     41 H8          0.9116   -2.2278   -5.1635 H         1 <0>         0.1177
     42 H9          0.0382   -4.9511   -7.0863 H         1 <0>         0.1966
     43 H10         0.0092   -0.7301   -9.5473 H         1 <0>         0.2165
     44 H11        -0.8818   -1.0093  -11.4304 H         1 <0>         0.0853
     45 H12         0.8981   -0.9982  -11.4323 H         1 <0>         0.0862
     46 H13         2.1434   -1.7488  -13.3768 H         1 <0>         0.1331
     47 H14         2.1469   -2.0378  -15.8213 H         1 <0>         0.1395
     48 H15        -2.1268   -2.0454  -15.8190 H         1 <0>         0.1363
     49 H16        -2.1218   -1.7657  -13.3735 H         1 <0>         0.1284
     50 H17        -1.8191   -3.1485  -17.5730 H         1 <0>         0.0597
     51 H18        -1.8225   -1.3808  -17.7816 H         1 <0>         0.0600
     52 H19        -1.1214   -2.4244  -19.0417 H         1 <0>         0.1075
     53 H20         0.9362   -6.4556   -8.2951 H         1 <0>         0.0787
     54 H21        -0.8437   -6.4671   -8.2927 H         1 <0>         0.0785
     55 H22         0.0500   -7.3144   -9.5779 H         1 <0>         0.1296
     56 H23         0.0820   -7.5181   -3.4716 H         1 <0>         0.4135
     57 H24         0.0690   -6.5397   -4.8374 H         1 <0>         0.4096
     58 H25         0.0031   -0.8416   -7.2233 H         1 <0>         0.4519
@<TRIPOS>BOND
     1    1    2 1
     2    1   34 1
     3    1   35 1
     4    1   36 1
     5    2    6 1
     6    2    3 1
     7    3    4 2
     8    3   37 1
     9    4    5 1
    10    4    7 1
    11    5    6 2
    12    5   38 1
    13    7   12 ar
    14    7    8 ar
    15    8    9 ar
    16    8   39 1
    17    9   10 ar
    18   10   11 ar
    19   10   33 1
    20   11   12 ar
    21   11   13 1
    22   13   14 1
    23   14   15 1
    24   14   40 1
    25   14   41 1
    26   15   20 ar
    27   15   16 ar
    28   16   17 ar
    29   16   42 1
    30   17   18 ar
    31   17   31 1
    32   18   19 ar
    33   18   21 1
    34   19   20 ar
    35   19   43 1
    36   20   58 1
    37   21   22 1
    38   22   23 1
    39   22   44 1
    40   22   45 1
    41   23   28 ar
    42   23   24 ar
    43   24   25 ar
    44   24   46 1
    45   25   26 ar
    46   25   47 1
    47   26   27 ar
    48   26   29 1
    49   27   28 ar
    50   27   48 1
    51   28   49 1
    52   29   30 1
    53   30   50 1
    54   30   51 1
    55   30   52 1
    56   31   32 1
    57   32   53 1
    58   32   54 1
    59   32   55 1
    60   33   56 1
    61   33   57 1
@<TRIPOS>MOLECULE
CHEMBL480646
   57    60     0     0     0
SMALL
USER_CHARGES

@<TRIPOS>ATOM
      1 C1         -1.7350    0.1983    4.5775 C.3       1 <0>         0.0184
      2 O1         -1.8853   -1.2150    4.4287 O.3       1 <0>        -0.3033
      3 C2         -2.5494   -1.6519    3.3272 C.ar      1 <0>         0.1513
      4 C3         -3.0343   -0.7392    2.4176 C.ar      1 <0>        -0.1666
      5 C4         -3.7205   -1.1880    1.2794 C.ar      1 <0>         0.1727
      6 C5         -3.9021   -2.5787    1.0868 C.ar      1 <0>        -0.1104
      7 C6         -3.3979   -3.4876    2.0283 C.ar      1 <0>        -0.1422
      8 C7         -2.7287   -3.0274    3.1258 C.ar      1 <0>         0.1118
      9 O2         -2.2365   -3.9112    4.0345 O.3       1 <0>        -0.3118
     10 C8         -2.4521   -5.2992    3.7721 C.3       1 <0>         0.0219
     11 C9         -1.8321   -6.1329    4.8953 C.3       1 <0>         0.0051
     12 N1         -2.5387   -5.8610    6.1541 N.4       1 <0>        -0.3962
     13 C10        -3.9201   -6.4036    6.0936 C.3       1 <0>        -0.0115
     14 C11        -4.3074   -6.5544    7.5862 C.3       1 <0>        -0.1444
     15 C12        -2.9861   -7.0185    8.2411 C.3       1 <0>        -0.1448
     16 C13        -1.8770   -6.5666    7.2730 C.3       1 <0>        -0.0084
     17 C14        -4.5945   -3.0280   -0.0622 C.ar      1 <0>         0.2768
     18 C15        -5.0700   -2.0599   -0.9602 C.ar      1 <0>        -0.2019
     19 C16        -4.8438   -0.7008   -0.6886 C.ar      1 <0>         0.1751
     20 N2         -4.1997   -0.3133    0.3819 N.ar      1 <0>        -0.4668
     21 C17        -5.7972   -2.4647   -2.1737 C.2       1 <0>         0.5646
     22 O3         -6.0767   -3.6349   -2.3534 O.2       1 <0>        -0.5159
     23 N3         -6.1536   -1.5390   -3.0861 N.am      1 <0>        -0.8466
     24 N4         -4.7953   -4.3725   -0.2924 N.pl3     1 <0>        -0.6858
     25 C18        -5.9746   -4.9875    0.1398 C.ar      1 <0>         0.2329
     26 C19        -7.0032   -4.2215    0.6737 C.ar      1 <0>        -0.1500
     27 C20        -8.1673   -4.8303    1.0996 C.ar      1 <0>        -0.0936
     28 C21        -8.3103   -6.2035    0.9950 C.ar      1 <0>         0.0604
     29 C22        -7.2858   -6.9702    0.4632 C.ar      1 <0>        -0.0283
     30 C23        -6.1213   -6.3640    0.0305 C.ar      1 <0>        -0.1489
     31 Cl1        -7.4675   -8.6918    0.3343 Cl        1 <0>        -0.0417
     32 F1         -9.4501   -6.7968    1.4123 F         1 <0>        -0.1282
     33 H1         -1.1880    0.4108    5.4961 H         1 <0>         0.1106
     34 H2         -1.1836    0.5967    3.7259 H         1 <0>         0.0661
     35 H3         -2.7187    0.6654    4.6242 H         1 <0>         0.0654
     36 H4         -2.8873    0.3183    2.5800 H         1 <0>         0.1608
     37 H5         -3.5352   -4.5490    1.8836 H         1 <0>         0.1468
     38 H6         -3.5227   -5.4973    3.7211 H         1 <0>         0.0879
     39 H7         -1.9876   -5.5659    2.8228 H         1 <0>         0.1103
     40 H8         -1.9181   -7.1918    4.6517 H         1 <0>         0.1504
     41 H9         -0.7801   -5.8696    5.0049 H         1 <0>         0.1430
     42 H10        -4.5871   -5.7026    5.5920 H         1 <0>         0.1329
     43 H11        -3.9314   -7.3720    5.5935 H         1 <0>         0.1357
     44 H12        -4.6280   -5.5983    8.0000 H         1 <0>         0.0984
     45 H13        -5.0844   -7.3090    7.7087 H         1 <0>         0.1178
     46 H14        -2.8575   -6.5416    9.2128 H         1 <0>         0.1057
     47 H15        -2.9769   -8.1033    8.3470 H         1 <0>         0.1046
     48 H16        -1.3362   -7.4349    6.8965 H         1 <0>         0.1316
     49 H17        -1.1907   -5.8912    7.7839 H         1 <0>         0.1333
     50 H18        -5.2104    0.0428   -1.3808 H         1 <0>         0.1701
     51 H19        -5.9308   -0.6058   -2.9428 H         1 <0>         0.4015
     52 H20        -6.6330   -1.8058   -3.8860 H         1 <0>         0.4122
     53 H21        -4.1185   -4.8918   -0.7541 H         1 <0>         0.4193
     54 H22        -6.8923   -3.1504    0.7561 H         1 <0>         0.1282
     55 H23        -8.9668   -4.2347    1.5150 H         1 <0>         0.1460
     56 H24        -5.3245   -6.9610   -0.3880 H         1 <0>         0.1430
     57 H25        -2.5613   -4.8684    6.3336 H         1 <0>         0.4343
@<TRIPOS>BOND
     1    1    2 1
     2    1   33 1
     3    1   34 1
     4    1   35 1
     5    2    3 1
     6    3    8 ar
     7    3    4 ar
     8    4    5 ar
     9    4   36 1
    10    5   20 ar
    11    5    6 ar
    12    6    7 ar
    13    6   17 ar
    14    7    8 ar
    15    7   37 1
    16    8    9 1
    17    9   10 1
    18   10   11 1
    19   10   38 1
    20   10   39 1
    21   11   12 1
    22   11   40 1
    23   11   41 1
    24   12   16 1
    25   12   13 1
    26   12   57 1
    27   13   14 1
    28   13   42 1
    29   13   43 1
    30   14   15 1
    31   14   44 1
    32   14   45 1
    33   15   16 1
    34   15   46 1
    35   15   47 1
    36   16   48 1
    37   16   49 1
    38   17   18 ar
    39   17   24 1
    40   18   19 ar
    41   18   21 1
    42   19   20 ar
    43   19   50 1
    44   21   22 2
    45   21   23 am
    46   23   51 1
    47   23   52 1
    48   24   25 1
    49   24   53 1
    50   25   30 ar
    51   25   26 ar
    52   26   27 ar
    53   26   54 1
    54   27   28 ar
    55   27   55 1
    56   28   29 ar
    57   28   32 1
    58   29   30 ar
    59   29   31 1
    60   30   56 1
@<TRIPOS>MOLECULE
CHEMBL480646__1
   58    61     0     0     0
SMALL
USER_CHARGES

@<TRIPOS>ATOM
      1 C1         -1.7350    0.1983    4.5775 C.3       1 <0>         0.0083
      2 O1         -1.8853   -1.2150    4.4287 O.3       1 <0>        -0.2791
      3 C2         -2.5494   -1.6519    3.3272 C.ar      1 <0>         0.2214
      4 C3         -3.0343   -0.7392    2.4176 C.ar      1 <0>        -0.2267
      5 C4         -3.7205   -1.1880    1.2794 C.ar      1 <0>         0.1841
      6 C5         -3.9021   -2.5787    1.0868 C.ar      1 <0>        -0.0929
      7 C6         -3.3979   -3.4876    2.0283 C.ar      1 <0>        -0.1223
      8 C7         -2.7287   -3.0274    3.1258 C.ar      1 <0>         0.1341
      9 O2         -2.2365   -3.9112    4.0345 O.3       1 <0>        -0.3002
     10 C8         -2.4521   -5.2992    3.7721 C.3       1 <0>         0.0172
     11 C9         -1.8321   -6.1329    4.8953 C.3       1 <0>         0.0034
     12 N1         -2.5387   -5.8610    6.1541 N.4       1 <0>        -0.3978
     13 C10        -3.9201   -6.4036    6.0936 C.3       1 <0>        -0.0124
     14 C11        -4.3074   -6.5544    7.5862 C.3       1 <0>        -0.1446
     15 C12        -2.9861   -7.0185    8.2411 C.3       1 <0>        -0.1460
     16 C13        -1.8770   -6.5666    7.2730 C.3       1 <0>        -0.0087
     17 C14        -4.5945   -3.0280   -0.0622 C.ar      1 <0>         0.3873
     18 C15        -5.0700   -2.0599   -0.9602 C.ar      1 <0>        -0.2008
     19 C16        -4.8438   -0.7008   -0.6886 C.ar      1 <0>         0.2378
     20 N2         -4.1997   -0.3133    0.3819 N.ar      1 <0>        -0.4569
     21 C17        -5.7972   -2.4647   -2.1737 C.2       1 <0>         0.5651
     22 O3         -6.0767   -3.6349   -2.3534 O.2       1 <0>        -0.4840
     23 N3         -6.1536   -1.5390   -3.0861 N.am      1 <0>        -0.8385
     24 N4         -4.7953   -4.3725   -0.2924 N.pl3     1 <0>        -0.6996
     25 C18        -5.9746   -4.9875    0.1398 C.ar      1 <0>         0.2062
     26 C19        -7.0032   -4.2215    0.6737 C.ar      1 <0>        -0.1507
     27 C20        -8.1673   -4.8303    1.0996 C.ar      1 <0>        -0.0943
     28 C21        -8.3103   -6.2035    0.9950 C.ar      1 <0>         0.0833
     29 C22        -7.2858   -6.9702    0.4632 C.ar      1 <0>        -0.0318
     30 C23        -6.1213   -6.3640    0.0305 C.ar      1 <0>        -0.1295
     31 Cl1        -7.4675   -8.6918    0.3343 Cl        1 <0>        -0.0230
     32 F1         -9.4501   -6.7968    1.4123 F         1 <0>        -0.1184
     33 H1         -1.1880    0.4108    5.4961 H         1 <0>         0.1270
     34 H2         -1.1836    0.5967    3.7259 H         1 <0>         0.0754
     35 H3         -2.7187    0.6654    4.6242 H         1 <0>         0.0748
     36 H4         -2.8873    0.3183    2.5800 H         1 <0>         0.1787
     37 H5         -3.5352   -4.5490    1.8836 H         1 <0>         0.1717
     38 H6         -3.5227   -5.4973    3.7211 H         1 <0>         0.0956
     39 H7         -1.9876   -5.5659    2.8228 H         1 <0>         0.1183
     40 H8         -1.9181   -7.1918    4.6517 H         1 <0>         0.1573
     41 H9         -0.7801   -5.8696    5.0049 H         1 <0>         0.1470
     42 H10        -4.5871   -5.7026    5.5920 H         1 <0>         0.1305
     43 H11        -3.9314   -7.3720    5.5935 H         1 <0>         0.1378
     44 H12        -4.6280   -5.5983    8.0000 H         1 <0>         0.0987
     45 H13        -5.0844   -7.3090    7.7087 H         1 <0>         0.1202
     46 H14        -2.8575   -6.5416    9.2128 H         1 <0>         0.1082
     47 H15        -2.9769   -8.1033    8.3470 H         1 <0>         0.1075
     48 H16        -1.3362   -7.4349    6.8965 H         1 <0>         0.1342
     49 H17        -1.1907   -5.8912    7.7839 H         1 <0>         0.1353
     50 H18        -5.2104    0.0428   -1.3808 H         1 <0>         0.2178
     51 H19        -5.9308   -0.6058   -2.9428 H         1 <0>         0.3994
     52 H20        -6.6330   -1.8058   -3.8860 H         1 <0>         0.4263
     53 H21        -4.1185   -4.8918   -0.7541 H         1 <0>         0.4349
     54 H22        -6.8923   -3.1504    0.7561 H         1 <0>         0.1232
     55 H23        -8.9668   -4.2347    1.5150 H         1 <0>         0.1523
     56 H24        -5.3245   -6.9610   -0.3880 H         1 <0>         0.1502
     57 H25        -2.5613   -4.8684    6.3336 H         1 <0>         0.4319
     58 H26        -4.0650    0.6355    0.5319 H         1 <0>         0.4562
@<TRIPOS>BOND
     1    1    2 1
     2    1   33 1
     3    1   34 1
     4    1   35 1
     5    2    3 1
     6    3    8 ar
     7    3    4 ar
     8    4    5 ar
     9    4   36 1
    10    5   20 ar
    11    5    6 ar
    12    6    7 ar
    13    6   17 ar
    14    7    8 ar
    15    7   37 1
    16    8    9 1
    17    9   10 1
    18   10   11 1
    19   10   38 1
    20   10   39 1
    21   11   12 1
    22   11   40 1
    23   11   41 1
    24   12   16 1
    25   12   13 1
    26   12   57 1
    27   13   14 1
    28   13   42 1
    29   13   43 1
    30   14   15 1
    31   14   44 1
    32   14   45 1
    33   15   16 1
    34   15   46 1
    35   15   47 1
    36   16   48 1
    37   16   49 1
    38   17   18 ar
    39   17   24 1
    40   18   19 ar
    41   18   21 1
    42   19   20 ar
    43   19   50 1
    44   20   58 1
    45   21   22 2
    46   21   23 am
    47   23   51 1
    48   23   52 1
    49   24   25 1
    50   24   53 1
    51   25   30 ar
    52   25   26 ar
    53   26   27 ar
    54   26   54 1
    55   27   28 ar
    56   27   55 1
    57   28   29 ar
    58   28   32 1
    59   29   30 ar
    60   29   31 1
    61   30   56 1
@<TRIPOS>MOLECULE
CHEMBL481402
   65    68     0     0     0
SMALL
USER_CHARGES

@<TRIPOS>ATOM
      1 C1         10.7297   -6.2463   -2.9028 C.3       1 <0>        -0.0459
      2 N1          9.4581   -6.8723   -2.5167 N.4       1 <0>        -0.3888
      3 C2          8.3920   -5.8620   -2.5281 C.3       1 <0>        -0.0025
      4 C3          7.0636   -6.5175   -2.1443 C.3       1 <0>         0.0250
      5 N2          7.1833   -7.1133   -0.8060 N.3       1 <0>        -0.5377
      6 C4          8.2636   -8.1092   -0.7728 C.3       1 <0>         0.0185
      7 C5          9.5821   -7.4406   -1.1680 C.3       1 <0>        -0.0026
      8 C6          5.9087   -7.7045   -0.3771 C.3       1 <0>         0.0581
      9 C7          5.9967   -8.0888    1.1012 C.3       1 <0>        -0.1169
     10 C8          4.6693   -8.7046    1.5480 C.3       1 <0>         0.0557
     11 O1          4.7514   -9.0635    2.9287 O.3       1 <0>        -0.2964
     12 C9          3.6473   -9.6283    3.4865 C.ar      1 <0>         0.1252
     13 C10         2.5328   -9.8310    2.7244 C.ar      1 <0>        -0.1560
     14 C11         1.3927  -10.4131    3.2969 C.ar      1 <0>        -0.1054
     15 C12         1.4005  -10.7886    4.6619 C.ar      1 <0>         0.1677
     16 C13         2.5574  -10.5698    5.4246 C.ar      1 <0>        -0.1732
     17 C14         3.6657  -10.0022    4.8372 C.ar      1 <0>         0.1530
     18 O2          4.7870   -9.7972    5.5761 O.3       1 <0>        -0.2981
     19 C15         4.7435  -10.1995    6.9466 C.3       1 <0>         0.0190
     20 N3          0.3133  -11.3469    5.2154 N.ar      1 <0>        -0.4661
     21 C16        -0.7798  -11.5640    4.5305 C.ar      1 <0>         0.1669
     22 C17        -0.8770  -11.2234    3.1716 C.ar      1 <0>        -0.2066
     23 C18         0.2244  -10.6352    2.5306 C.ar      1 <0>         0.2735
     24 N4          0.1694  -10.2852    1.1982 N.pl3     1 <0>        -0.6821
     25 C19         0.4474  -11.2380    0.2128 C.ar      1 <0>         0.2346
     26 C20         0.6405  -12.5676    0.5659 C.ar      1 <0>        -0.1524
     27 C21         0.9144  -13.5073   -0.4083 C.ar      1 <0>        -0.0917
     28 C22         0.9971  -13.1254   -1.7367 C.ar      1 <0>         0.0572
     29 C23         0.8054  -11.7998   -2.0917 C.ar      1 <0>        -0.0266
     30 C24         0.5250  -10.8572   -1.1203 C.ar      1 <0>        -0.1496
     31 Cl1         0.9104  -11.3238   -3.7579 Cl        1 <0>        -0.0475
     32 F1          1.2656  -14.0465   -2.6879 F         1 <0>        -0.1299
     33 C25        -2.1202  -11.4805    2.4276 C.2       1 <0>         0.5669
     34 O3         -2.2326  -11.0954    1.2793 O.2       1 <0>        -0.5197
     35 N5         -3.1345  -12.1428    3.0185 N.am      1 <0>        -0.8481
     36 H1         11.5207   -6.9962   -2.8957 H         1 <0>         0.1245
     37 H2         10.6379   -5.8246   -3.9037 H         1 <0>         0.1244
     38 H3         10.9740   -5.4537   -2.1956 H         1 <0>         0.1234
     39 H4          8.6293   -5.0753   -1.8119 H         1 <0>         0.1382
     40 H5          8.3098   -5.4318   -3.5263 H         1 <0>         0.1366
     41 H6          6.2750   -5.7650   -2.1382 H         1 <0>         0.1247
     42 H7          6.8192   -7.2950   -2.8680 H         1 <0>         0.0622
     43 H8          8.3505   -8.5180    0.2339 H         1 <0>         0.1268
     44 H9          8.0390   -8.9130   -1.4739 H         1 <0>         0.0624
     45 H10        10.3822   -8.1807   -1.1577 H         1 <0>         0.1364
     46 H11         9.8133   -6.6458   -0.4587 H         1 <0>         0.1383
     47 H12         5.1067   -6.9798   -0.5170 H         1 <0>         0.0932
     48 H13         5.7025   -8.5942   -0.9721 H         1 <0>         0.0520
     49 H14         6.7988   -8.8135    1.2412 H         1 <0>         0.0769
     50 H15         6.2030   -7.1991    1.6962 H         1 <0>         0.0903
     51 H16         3.8672   -7.9799    1.4080 H         1 <0>         0.0679
     52 H17         4.4630   -9.5943    0.9530 H         1 <0>         0.0655
     53 H18         2.5291   -9.5433    1.6834 H         1 <0>         0.1455
     54 H19         2.5802  -10.8501    6.4673 H         1 <0>         0.1582
     55 H20         3.9508   -9.6553    7.4600 H         1 <0>         0.0637
     56 H21         4.5460  -11.2699    7.0049 H         1 <0>         0.0635
     57 H22         5.7004   -9.9803    7.4202 H         1 <0>         0.1086
     58 H23        -1.6283  -12.0166    5.0221 H         1 <0>         0.1671
     59 H24        -0.0620   -9.3781    0.9441 H         1 <0>         0.4192
     60 H25         0.5768  -12.8662    1.6018 H         1 <0>         0.1298
     61 H26         1.0645  -14.5410   -0.1338 H         1 <0>         0.1461
     62 H27         0.3708   -9.8248   -1.3974 H         1 <0>         0.1425
     63 H28        -3.0449  -12.4499    3.9343 H         1 <0>         0.4012
     64 H29        -3.9540  -12.3123    2.5281 H         1 <0>         0.4104
     65 H30         9.2323   -7.6063   -3.1713 H         1 <0>         0.4226
@<TRIPOS>BOND
     1    1    2 1
     2    1   36 1
     3    1   37 1
     4    1   38 1
     5    2    7 1
     6    2    3 1
     7    2   65 1
     8    3    4 1
     9    3   39 1
    10    3   40 1
    11    4    5 1
    12    4   41 1
    13    4   42 1
    14    5    6 1
    15    5    8 1
    16    6    7 1
    17    6   43 1
    18    6   44 1
    19    7   45 1
    20    7   46 1
    21    8    9 1
    22    8   47 1
    23    8   48 1
    24    9   10 1
    25    9   49 1
    26    9   50 1
    27   10   11 1
    28   10   51 1
    29   10   52 1
    30   11   12 1
    31   12   17 ar
    32   12   13 ar
    33   13   14 ar
    34   13   53 1
    35   14   23 ar
    36   14   15 ar
    37   15   16 ar
    38   15   20 ar
    39   16   17 ar
    40   16   54 1
    41   17   18 1
    42   18   19 1
    43   19   55 1
    44   19   56 1
    45   19   57 1
    46   20   21 ar
    47   21   22 ar
    48   21   58 1
    49   22   23 ar
    50   22   33 1
    51   23   24 1
    52   24   25 1
    53   24   59 1
    54   25   30 ar
    55   25   26 ar
    56   26   27 ar
    57   26   60 1
    58   27   28 ar
    59   27   61 1
    60   28   29 ar
    61   28   32 1
    62   29   30 ar
    63   29   31 1
    64   30   62 1
    65   33   34 2
    66   33   35 am
    67   35   63 1
    68   35   64 1
@<TRIPOS>MOLECULE
CHEMBL481402__1
   65    68     0     0     0
SMALL
USER_CHARGES

@<TRIPOS>ATOM
      1 C1         10.7735   -5.7762   -3.6147 C.3       1 <0>         0.0193
      2 N1          9.5305   -6.4081   -3.1525 N.3       1 <0>        -0.5437
      3 C2          8.4172   -5.4485   -3.1605 C.3       1 <0>         0.0242
      4 C3          7.1320   -6.1593   -2.7307 C.3       1 <0>        -0.0022
      5 N2          7.3087   -6.7192   -1.3843 N.4       1 <0>        -0.3849
      6 C4          8.4077   -7.6937   -1.3978 C.3       1 <0>        -0.0087
      7 C5          9.7035   -6.9957   -1.8165 C.3       1 <0>         0.0249
      8 C6          6.0687   -7.3858   -0.9649 C.3       1 <0>        -0.0056
      9 C7          6.2092   -7.8601    0.4829 C.3       1 <0>        -0.1496
     10 C8          4.9176   -8.5544    0.9197 C.3       1 <0>         0.0586
     11 O1          5.0488   -8.9973    2.2720 O.3       1 <0>        -0.2958
     12 C9          3.9814   -9.6391    2.8177 C.ar      1 <0>         0.1204
     13 C10         2.8558   -9.8358    2.0704 C.ar      1 <0>        -0.1514
     14 C11         1.7534  -10.4973    2.6305 C.ar      1 <0>        -0.1076
     15 C12         1.8106  -10.9587    3.9677 C.ar      1 <0>         0.1700
     16 C13         2.9778  -10.7443    4.7156 C.ar      1 <0>        -0.1704
     17 C14         4.0486  -10.0976    4.1405 C.ar      1 <0>         0.1527
     18 O2          5.1803   -9.8967    4.8646 O.3       1 <0>        -0.2995
     19 C15         5.1873  -10.3873    6.2068 C.3       1 <0>         0.0186
     20 N3          0.7596  -11.5930    4.5092 N.ar      1 <0>        -0.4661
     21 C16        -0.3420  -11.8083    3.8374 C.ar      1 <0>         0.1702
     22 C17        -0.4869  -11.3856    2.5061 C.ar      1 <0>        -0.2047
     23 C18         0.5747  -10.7152    1.8790 C.ar      1 <0>         0.2742
     24 N4          0.4723  -10.2831    0.5737 N.pl3     1 <0>        -0.6829
     25 C19         0.7600  -11.1595   -0.4776 C.ar      1 <0>         0.2320
     26 C20         1.0116  -12.5004   -0.2162 C.ar      1 <0>        -0.1521
     27 C21         1.2951  -13.3646   -1.2554 C.ar      1 <0>        -0.0916
     28 C22         1.3292  -12.8957   -2.5578 C.ar      1 <0>         0.0597
     29 C23         1.0790  -11.5585   -2.8215 C.ar      1 <0>        -0.0278
     30 C24         0.7888  -10.6915   -1.7847 C.ar      1 <0>        -0.1499
     31 Cl1         1.1230  -10.9733   -4.4553 Cl        1 <0>        -0.0450
     32 F1          1.6071  -13.7429   -3.5728 F         1 <0>        -0.1285
     33 C25        -1.7385  -11.6428    1.7764 C.2       1 <0>         0.5663
     34 O3         -1.8949  -11.1897    0.6583 O.2       1 <0>        -0.5191
     35 N5         -2.7117  -12.3804    2.3467 N.am      1 <0>        -0.8473
     36 H1         11.5654   -6.5236   -3.6615 H         1 <0>         0.0848
     37 H2         10.6175   -5.3495   -4.6055 H         1 <0>         0.0843
     38 H3         11.0598   -4.9865   -2.9200 H         1 <0>         0.0398
     39 H4          8.6327   -4.6357   -2.4669 H         1 <0>         0.0609
     40 H5          8.2915   -5.0458   -4.1655 H         1 <0>         0.1248
     41 H6          6.3078   -5.4461   -2.7223 H         1 <0>         0.1371
     42 H7          6.9095   -6.9633   -3.4323 H         1 <0>         0.1394
     43 H8          8.5292   -8.1180   -0.4011 H         1 <0>         0.1379
     44 H9          8.1786   -8.4899   -2.1061 H         1 <0>         0.1397
     45 H10        10.5162   -7.7217   -1.8409 H         1 <0>         0.1245
     46 H11         9.9401   -6.2084   -1.1007 H         1 <0>         0.0611
     47 H12         5.2368   -6.6854   -1.0387 H         1 <0>         0.1362
     48 H13         5.8804   -8.2430   -1.6114 H         1 <0>         0.1363
     49 H14         7.0411   -8.5605    0.5567 H         1 <0>         0.1010
     50 H15         6.3974   -7.0029    1.1294 H         1 <0>         0.1005
     51 H16         4.0857   -7.8540    0.8459 H         1 <0>         0.0747
     52 H17         4.7293   -9.4115    0.2733 H         1 <0>         0.0759
     53 H18         2.8144   -9.4826    1.0506 H         1 <0>         0.1453
     54 H19         3.0381  -11.0895    5.7372 H         1 <0>         0.1595
     55 H20         4.3884   -9.9082    6.7729 H         1 <0>         0.0645
     56 H21         5.0314  -11.4660    6.2002 H         1 <0>         0.0647
     57 H22         6.1473  -10.1617    6.6711 H         1 <0>         0.1096
     58 H23        -1.1600  -12.3240    4.3184 H         1 <0>         0.1684
     59 H24         0.2008   -9.3713    0.3845 H         1 <0>         0.4190
     60 H25         0.9860  -12.8669    0.7994 H         1 <0>         0.1295
     61 H26         1.4907  -14.4071   -1.0521 H         1 <0>         0.1467
     62 H27         0.5892   -9.6503   -1.9906 H         1 <0>         0.1422
     63 H28        -2.5871  -12.7417    3.2382 H         1 <0>         0.4015
     64 H29        -3.5368  -12.5500    1.8656 H         1 <0>         0.4113
     65 H30         7.5262   -5.9763   -0.7372 H         1 <0>         0.4218
@<TRIPOS>BOND
     1    1    2 1
     2    1   36 1
     3    1   37 1
     4    1   38 1
     5    2    7 1
     6    2    3 1
     7    3    4 1
     8    3   39 1
     9    3   40 1
    10    4    5 1
    11    4   41 1
    12    4   42 1
    13    5    6 1
    14    5    8 1
    15    5   65 1
    16    6    7 1
    17    6   43 1
    18    6   44 1
    19    7   45 1
    20    7   46 1
    21    8    9 1
    22    8   47 1
    23    8   48 1
    24    9   10 1
    25    9   49 1
    26    9   50 1
    27   10   11 1
    28   10   51 1
    29   10   52 1
    30   11   12 1
    31   12   17 ar
    32   12   13 ar
    33   13   14 ar
    34   13   53 1
    35   14   23 ar
    36   14   15 ar
    37   15   16 ar
    38   15   20 ar
    39   16   17 ar
    40   16   54 1
    41   17   18 1
    42   18   19 1
    43   19   55 1
    44   19   56 1
    45   19   57 1
    46   20   21 ar
    47   21   22 ar
    48   21   58 1
    49   22   23 ar
    50   22   33 1
    51   23   24 1
    52   24   25 1
    53   24   59 1
    54   25   30 ar
    55   25   26 ar
    56   26   27 ar
    57   26   60 1
    58   27   28 ar
    59   27   61 1
    60   28   29 ar
    61   28   32 1
    62   29   30 ar
    63   29   31 1
    64   30   62 1
    65   33   34 2
    66   33   35 am
    67   35   63 1
    68   35   64 1
@<TRIPOS>MOLECULE
CHEMBL481402__2
   66    69     0     0     0
SMALL
USER_CHARGES

@<TRIPOS>ATOM
      1 C1          9.9278   -4.4591   -2.7849 C.3       1 <0>        -0.0468
      2 N1          8.7394   -5.2380   -2.4122 N.4       1 <0>        -0.3887
      3 C2          7.5988   -4.3314   -2.2258 C.3       1 <0>        -0.0034
      4 C3          6.3561   -5.1441   -1.8559 C.3       1 <0>         0.0259
      5 N2          6.6151   -5.8941   -0.6187 N.3       1 <0>        -0.5382
      6 C4          7.7702   -6.7880   -0.7823 C.3       1 <0>         0.0192
      7 C5          9.0013   -5.9617   -1.1611 C.3       1 <0>        -0.0033
      8 C6          5.4241   -6.6444   -0.1988 C.3       1 <0>         0.0581
      9 C7          5.6446   -7.2061    1.2072 C.3       1 <0>        -0.1198
     10 C8          4.4041   -7.9876    1.6445 C.3       1 <0>         0.0500
     11 O1          4.6101   -8.5123    2.9577 O.3       1 <0>        -0.2817
     12 C9          3.5954   -9.2381    3.4987 C.ar      1 <0>         0.1472
     13 C10         2.4500   -9.4377    2.7829 C.ar      1 <0>        -0.1375
     14 C11         1.4018  -10.1858    3.3383 C.ar      1 <0>        -0.0860
     15 C12         1.5342  -10.7313    4.6379 C.ar      1 <0>         0.1775
     16 C13         2.7205  -10.5122    5.3539 C.ar      1 <0>        -0.2326
     17 C14         3.7371   -9.7793    4.7838 C.ar      1 <0>         0.2229
     18 O2          4.8874   -9.5738    5.4764 O.3       1 <0>        -0.2736
     19 C15         4.9711  -10.1511    6.7810 C.3       1 <0>         0.0089
     20 N3          0.5354  -11.4486    5.1746 N.ar      1 <0>        -0.4541
     21 C16        -0.5820  -11.6709    4.5319 C.ar      1 <0>         0.2280
     22 C17        -0.7999  -11.1685    3.2387 C.ar      1 <0>        -0.2029
     23 C18         0.2042  -10.4086    2.6189 C.ar      1 <0>         0.3817
     24 N4          0.0294   -9.8966    1.3508 N.pl3     1 <0>        -0.6988
     25 C19         0.4147  -10.6461    0.2347 C.ar      1 <0>         0.2099
     26 C20         0.7856  -11.9765    0.3847 C.ar      1 <0>        -0.1484
     27 C21         1.1654  -12.7154   -0.7184 C.ar      1 <0>        -0.0933
     28 C22         1.1773  -12.1314   -1.9739 C.ar      1 <0>         0.0802
     29 C23         0.8083  -10.8045   -2.1264 C.ar      1 <0>        -0.0312
     30 C24         0.4216  -10.0632   -1.0256 C.ar      1 <0>        -0.1316
     31 Cl1         0.8248  -10.0749   -3.7015 Cl        1 <0>        -0.0300
     32 F1          1.5497  -12.8562   -3.0515 F         1 <0>        -0.1206
     33 C25        -2.0676  -11.4358    2.5410 C.2       1 <0>         0.5670
     34 O3         -2.2127  -11.0818    1.3863 O.2       1 <0>        -0.4872
     35 N5         -3.0679  -12.0729    3.1813 N.am      1 <0>        -0.8401
     36 H1         10.7740   -5.1318   -2.9245 H         1 <0>         0.1258
     37 H2          9.7337   -3.9219   -3.7133 H         1 <0>         0.1261
     38 H3         10.1575   -3.7456   -1.9936 H         1 <0>         0.1242
     39 H4          7.8226   -3.6255   -1.4260 H         1 <0>         0.1390
     40 H5          7.4137   -3.7855   -3.1509 H         1 <0>         0.1385
     41 H6          5.5131   -4.4703   -1.7030 H         1 <0>         0.1252
     42 H7          6.1239   -5.8407   -2.6615 H         1 <0>         0.0632
     43 H8          7.9589   -7.3135    0.1538 H         1 <0>         0.1250
     44 H9          7.5614   -7.5116   -1.5703 H         1 <0>         0.0630
     45 H10         9.8559   -6.6244   -1.2968 H         1 <0>         0.1376
     46 H11         9.2179   -5.2475   -0.3667 H         1 <0>         0.1388
     47 H12         4.5596   -5.9805   -0.1933 H         1 <0>         0.0939
     48 H13         5.2476   -7.4649   -0.8943 H         1 <0>         0.0525
     49 H14         6.5091   -7.8701    1.2017 H         1 <0>         0.0810
     50 H15         5.8211   -6.3857    1.9027 H         1 <0>         0.0944
     51 H16         3.5397   -7.3237    1.6500 H         1 <0>         0.0769
     52 H17         4.2277   -8.8081    0.9490 H         1 <0>         0.0744
     53 H18         2.3512   -9.0202    1.7918 H         1 <0>         0.1704
     54 H19         2.8377  -10.9209    6.3467 H         1 <0>         0.1762
     55 H20         5.9385   -9.9118    7.2228 H         1 <0>         0.1251
     56 H21         4.1757   -9.7485    7.4082 H         1 <0>         0.0732
     57 H22         4.8631  -11.2332    6.7071 H         1 <0>         0.0730
     58 H23        -1.3558  -12.2554    5.0072 H         1 <0>         0.2148
     59 H24        -0.3609   -9.0165    1.2327 H         1 <0>         0.4340
     60 H25         0.7772  -12.4326    1.3636 H         1 <0>         0.1249
     61 H26         1.4537  -13.7497   -0.6018 H         1 <0>         0.1521
     62 H27         0.1294   -9.0304   -1.1451 H         1 <0>         0.1493
     63 H28        -2.9522  -12.3552    4.1021 H         1 <0>         0.3992
     64 H29        -3.9035  -12.2491    2.7214 H         1 <0>         0.4245
     65 H30         8.5272   -5.8987   -3.1446 H         1 <0>         0.4229
     66 H31         0.6455  -11.8140    6.0664 H         1 <0>         0.4541
@<TRIPOS>BOND
     1    1    2 1
     2    1   36 1
     3    1   37 1
     4    1   38 1
     5    2    7 1
     6    2    3 1
     7    2   65 1
     8    3    4 1
     9    3   39 1
    10    3   40 1
    11    4    5 1
    12    4   41 1
    13    4   42 1
    14    5    6 1
    15    5    8 1
    16    6    7 1
    17    6   43 1
    18    6   44 1
    19    7   45 1
    20    7   46 1
    21    8    9 1
    22    8   47 1
    23    8   48 1
    24    9   10 1
    25    9   49 1
    26    9   50 1
    27   10   11 1
    28   10   51 1
    29   10   52 1
    30   11   12 1
    31   12   17 ar
    32   12   13 ar
    33   13   14 ar
    34   13   53 1
    35   14   23 ar
    36   14   15 ar
    37   15   16 ar
    38   15   20 ar
    39   16   17 ar
    40   16   54 1
    41   17   18 1
    42   18   19 1
    43   19   55 1
    44   19   56 1
    45   19   57 1
    46   20   21 ar
    47   20   66 1
    48   21   22 ar
    49   21   58 1
    50   22   23 ar
    51   22   33 1
    52   23   24 1
    53   24   25 1
    54   24   59 1
    55   25   30 ar
    56   25   26 ar
    57   26   27 ar
    58   26   60 1
    59   27   28 ar
    60   27   61 1
    61   28   29 ar
    62   28   32 1
    63   29   30 ar
    64   29   31 1
    65   30   62 1
    66   33   34 2
    67   33   35 am
    68   35   63 1
    69   35   64 1
@<TRIPOS>MOLECULE
CHEMBL480618
   56    59     0     0     0
SMALL
USER_CHARGES

@<TRIPOS>ATOM
      1 C1         -6.3720   -2.0441   -3.1952 C.3       1 <0>        -0.0479
      2 N1         -5.3138   -2.9175   -2.6706 N.4       1 <0>        -0.3826
      3 C2         -5.9201   -4.1159   -2.0771 C.3       1 <0>        -0.0242
      4 C3         -4.8149   -5.0797   -1.6329 C.3       1 <0>         0.1190
      5 N2         -3.8976   -4.3569   -0.7383 N.pl3     1 <0>        -0.6790
      6 C4         -3.3684   -3.0603   -1.1887 C.3       1 <0>         0.1189
      7 C5         -4.5419   -2.1918   -1.6539 C.3       1 <0>        -0.0239
      8 C6         -3.5403   -4.8856    0.5016 C.ar      1 <0>         0.2306
      9 C7         -2.4299   -5.6966    0.6034 C.ar      1 <0>        -0.1067
     10 C8         -2.0692   -6.2291    1.8494 C.ar      1 <0>         0.1300
     11 C9         -2.8565   -5.9220    2.9855 C.ar      1 <0>        -0.0571
     12 C10        -3.9815   -5.0939    2.8558 C.ar      1 <0>        -0.1496
     13 C11        -4.3112   -4.5823    1.6344 C.ar      1 <0>         0.1485
     14 O1         -5.3992   -3.7754    1.5130 O.3       1 <0>        -0.2973
     15 C12        -6.1422   -3.5048    2.7033 C.3       1 <0>         0.0112
     16 C13        -2.4896   -6.4608    4.2406 C.ar      1 <0>         0.3834
     17 C14        -1.3513   -7.2808    4.2938 C.ar      1 <0>        -0.2002
     18 C15        -0.6296   -7.5320    3.1157 C.ar      1 <0>         0.2393
     19 N3         -0.9916   -7.0199    1.9676 N.ar      1 <0>        -0.4524
     20 C16        -0.9188   -7.8704    5.5705 C.2       1 <0>         0.5626
     21 O2         -1.6016   -7.7303    6.5674 O.2       1 <0>        -0.4808
     22 N4          0.2339   -8.5658    5.6354 N.am      1 <0>        -0.8384
     23 N5         -3.2252   -6.1894    5.3745 N.pl3     1 <0>        -0.6894
     24 C17        -4.1207   -7.1430    5.8728 C.ar      1 <0>         0.1605
     25 C18        -4.1667   -8.4128    5.3134 C.ar      1 <0>        -0.1215
     26 C19        -5.0507   -9.3527    5.8068 C.ar      1 <0>        -0.1172
     27 C20        -5.8916   -9.0300    6.8587 C.ar      1 <0>         0.1117
     28 C21        -5.8488   -7.7647    7.4194 C.ar      1 <0>        -0.1450
     29 C22        -4.9617   -6.8219    6.9329 C.ar      1 <0>         0.0946
     30 F1         -4.9156   -5.5890    7.4834 F         1 <0>        -0.1250
     31 F2         -6.7556   -9.9513    7.3384 F         1 <0>        -0.1212
     32 H1         -5.9227   -1.1578   -3.6432 H         1 <0>         0.1274
     33 H2         -6.9458   -2.5816   -3.9501 H         1 <0>         0.1275
     34 H3         -7.0327   -1.7447   -2.3816 H         1 <0>         0.1226
     35 H4         -6.5213   -3.8297   -1.2141 H         1 <0>         0.1353
     36 H5         -6.5545   -4.6060   -2.8157 H         1 <0>         0.1426
     37 H6         -5.2561   -5.9230   -1.1014 H         1 <0>         0.1170
     38 H7         -4.2689   -5.4381   -2.5055 H         1 <0>         0.0910
     39 H8         -2.8532   -2.5685   -0.3636 H         1 <0>         0.1168
     40 H9         -2.6763   -3.2148   -2.0165 H         1 <0>         0.0909
     41 H10        -4.1607   -1.2641   -2.0806 H         1 <0>         0.1425
     42 H11        -5.1847   -1.9638   -0.8037 H         1 <0>         0.1352
     43 H12        -1.8404   -5.9212   -0.2732 H         1 <0>         0.1726
     44 H13        -4.5831   -4.8587    3.7213 H         1 <0>         0.1680
     45 H14        -5.4953   -3.0166    3.4323 H         1 <0>         0.0707
     46 H15        -6.9815   -2.8508    2.4668 H         1 <0>         0.1202
     47 H16        -6.5164   -4.4404    3.1187 H         1 <0>         0.0710
     48 H17         0.2458   -8.1630    3.1585 H         1 <0>         0.2177
     49 H18         0.7784   -8.6775    4.8405 H         1 <0>         0.3989
     50 H19         0.5190   -8.9545    6.4772 H         1 <0>         0.4263
     51 H20        -3.1223   -5.3376    5.8270 H         1 <0>         0.4365
     52 H21        -3.5120   -8.6656    4.4926 H         1 <0>         0.1263
     53 H22        -5.0863  -10.3404    5.3714 H         1 <0>         0.1508
     54 H23        -6.5058   -7.5152    8.2394 H         1 <0>         0.1615
     55 H24        -4.7012   -3.1915   -3.4241 H         1 <0>         0.4253
     56 H25        -0.4652   -7.2184    1.1774 H         1 <0>         0.4546
@<TRIPOS>BOND
     1    1    2 1
     2    1   32 1
     3    1   33 1
     4    1   34 1
     5    2    7 1
     6    2    3 1
     7    2   55 1
     8    3    4 1
     9    3   35 1
    10    3   36 1
    11    4    5 1
    12    4   37 1
    13    4   38 1
    14    5    6 1
    15    5    8 1
    16    6    7 1
    17    6   39 1
    18    6   40 1
    19    7   41 1
    20    7   42 1
    21    8   13 ar
    22    8    9 ar
    23    9   10 ar
    24    9   43 1
    25   10   19 ar
    26   10   11 ar
    27   11   12 ar
    28   11   16 ar
    29   12   13 ar
    30   12   44 1
    31   13   14 1
    32   14   15 1
    33   15   45 1
    34   15   46 1
    35   15   47 1
    36   16   17 ar
    37   16   23 1
    38   17   18 ar
    39   17   20 1
    40   18   19 ar
    41   18   48 1
    42   19   56 1
    43   20   21 2
    44   20   22 am
    45   22   49 1
    46   22   50 1
    47   23   24 1
    48   23   51 1
    49   24   29 ar
    50   24   25 ar
    51   25   26 ar
    52   25   52 1
    53   26   27 ar
    54   26   53 1
    55   27   28 ar
    56   27   31 1
    57   28   29 ar
    58   28   54 1
    59   29   30 1
@<TRIPOS>MOLECULE
CHEMBL480618__1
   55    58     0     0     0
SMALL
USER_CHARGES

@<TRIPOS>ATOM
      1 C1         -6.1932   -2.0584   -3.5355 C.3       1 <0>         0.0235
      2 N1         -5.1609   -2.9257   -2.9523 N.3       1 <0>        -0.5404
      3 C2         -5.7468   -4.1734   -2.4446 C.3       1 <0>         0.0377
      4 C3         -4.6239   -5.1223   -2.0123 C.3       1 <0>         0.1493
      5 N2         -3.7524   -4.4131   -1.0632 N.pl3     1 <0>        -0.6803
      6 C4         -3.2363   -3.0905   -1.4470 C.3       1 <0>         0.1493
      7 C5         -4.4138   -2.2216   -1.9016 C.3       1 <0>         0.0379
      8 C6         -3.4246   -4.9795    0.1682 C.ar      1 <0>         0.2637
      9 C7         -2.3008   -5.7709    0.2780 C.ar      1 <0>        -0.1241
     10 C8         -1.9698   -6.3412    1.5154 C.ar      1 <0>         0.1337
     11 C9         -2.8005   -6.0922    2.6348 C.ar      1 <0>        -0.0608
     12 C10        -3.9382   -5.2831    2.4972 C.ar      1 <0>        -0.1645
     13 C11        -4.2387   -4.7339    1.2847 C.ar      1 <0>         0.1526
     14 O1         -5.3393   -3.9455    1.1559 O.3       1 <0>        -0.2811
     15 C12        -6.1267   -3.7340    2.3295 C.3       1 <0>         0.0130
     16 C13        -2.4633   -6.6691    3.8812 C.ar      1 <0>         0.3786
     17 C14        -1.3099   -7.4670    3.9431 C.ar      1 <0>        -0.2079
     18 C15        -0.5446   -7.6599    2.7816 C.ar      1 <0>         0.2261
     19 N3         -0.8797   -7.1135    1.6412 N.ar      1 <0>        -0.4488
     20 C16        -0.9068   -8.0941    5.2115 C.2       1 <0>         0.5662
     21 O2         -1.6249   -8.0047    6.1894 O.2       1 <0>        -0.4861
     22 N4          0.2579   -8.7676    5.2901 N.am      1 <0>        -0.8413
     23 N5         -3.2415   -6.4546    4.9988 N.pl3     1 <0>        -0.6900
     24 C17        -4.1320   -7.4440    5.4321 C.ar      1 <0>         0.1698
     25 C18        -4.1321   -8.6931    4.8261 C.ar      1 <0>        -0.1224
     26 C19        -5.0111   -9.6684    5.2554 C.ar      1 <0>        -0.1160
     27 C20        -5.8929   -9.4018    6.2894 C.ar      1 <0>         0.1045
     28 C21        -5.8960   -8.1573    6.8964 C.ar      1 <0>        -0.1449
     29 C22        -5.0141   -7.1794    6.4742 C.ar      1 <0>         0.0898
     30 F1         -5.0129   -5.9668    7.0700 F         1 <0>        -0.1263
     31 F2         -6.7520  -10.3576    6.7062 F         1 <0>        -0.1248
     32 H1         -5.7233   -1.1770   -3.9717 H         1 <0>         0.0726
     33 H2         -6.7312   -2.6045   -4.3105 H         1 <0>         0.0723
     34 H3         -6.8912   -1.7504   -2.7570 H         1 <0>         0.0272
     35 H4         -6.3864   -3.9535   -1.5898 H         1 <0>         0.0419
     36 H5         -6.3381   -4.6437   -3.2302 H         1 <0>         0.0864
     37 H6         -5.0523   -6.0009   -1.5299 H         1 <0>         0.0734
     38 H7         -4.0450   -5.4258   -2.8845 H         1 <0>         0.0724
     39 H8         -2.7473   -2.6257   -0.5909 H         1 <0>         0.0733
     40 H9         -2.5239   -3.1987   -2.2649 H         1 <0>         0.0724
     41 H10        -4.0384   -1.2763   -2.2935 H         1 <0>         0.0863
     42 H11        -5.0719   -2.0288   -1.0543 H         1 <0>         0.0420
     43 H12        -1.6781   -5.9510   -0.5859 H         1 <0>         0.1717
     44 H13        -4.5729   -5.0922    3.3500 H         1 <0>         0.1636
     45 H14        -5.5149   -3.2598    3.0969 H         1 <0>         0.0667
     46 H15        -6.9719   -3.0892    2.0887 H         1 <0>         0.1171
     47 H16        -6.4940   -4.6918    2.6982 H         1 <0>         0.0669
     48 H17         0.3424   -8.2741    2.8311 H         1 <0>         0.2127
     49 H18         0.8305   -8.8389    4.5104 H         1 <0>         0.3986
     50 H19         0.5236   -9.1810    6.1264 H         1 <0>         0.4230
     51 H20        -3.1720   -5.6180    5.4849 H         1 <0>         0.4347
     52 H21        -3.4454   -8.9021    4.0192 H         1 <0>         0.1278
     53 H22        -5.0110  -10.6400    4.7838 H         1 <0>         0.1491
     54 H23        -6.5848   -7.9516    7.7023 H         1 <0>         0.1589
     55 H24        -0.3235   -7.2721    0.8625 H         1 <0>         0.4530
@<TRIPOS>BOND
     1    1    2 1
     2    1   32 1
     3    1   33 1
     4    1   34 1
     5    2    7 1
     6    2    3 1
     7    3    4 1
     8    3   35 1
     9    3   36 1
    10    4    5 1
    11    4   37 1
    12    4   38 1
    13    5    6 1
    14    5    8 1
    15    6    7 1
    16    6   39 1
    17    6   40 1
    18    7   41 1
    19    7   42 1
    20    8   13 ar
    21    8    9 ar
    22    9   10 ar
    23    9   43 1
    24   10   19 ar
    25   10   11 ar
    26   11   12 ar
    27   11   16 ar
    28   12   13 ar
    29   12   44 1
    30   13   14 1
    31   14   15 1
    32   15   45 1
    33   15   46 1
    34   15   47 1
    35   16   17 ar
    36   16   23 1
    37   17   18 ar
    38   17   20 1
    39   18   19 ar
    40   18   48 1
    41   19   55 1
    42   20   21 2
    43   20   22 am
    44   22   49 1
    45   22   50 1
    46   23   24 1
    47   23   51 1
    48   24   29 ar
    49   24   25 ar
    50   25   26 ar
    51   25   52 1
    52   26   27 ar
    53   26   53 1
    54   27   28 ar
    55   27   31 1
    56   28   29 ar
    57   28   54 1
    58   29   30 1
@<TRIPOS>MOLECULE
CHEMBL480618__2
   55    58     0     0     0
SMALL
USER_CHARGES

@<TRIPOS>ATOM
      1 C1         -6.3720   -2.0441   -3.1952 C.3       1 <0>        -0.0460
      2 N1         -5.3138   -2.9175   -2.6706 N.4       1 <0>        -0.3815
      3 C2         -5.9201   -4.1159   -2.0771 C.3       1 <0>        -0.0232
      4 C3         -4.8149   -5.0797   -1.6329 C.3       1 <0>         0.1212
      5 N2         -3.8976   -4.3569   -0.7383 N.pl3     1 <0>        -0.6684
      6 C4         -3.3684   -3.0603   -1.1887 C.3       1 <0>         0.1212
      7 C5         -4.5419   -2.1918   -1.6539 C.3       1 <0>        -0.0229
      8 C6         -3.5403   -4.8856    0.5016 C.ar      1 <0>         0.1618
      9 C7         -2.4299   -5.6966    0.6034 C.ar      1 <0>        -0.0533
     10 C8         -2.0692   -6.2291    1.8494 C.ar      1 <0>         0.1293
     11 C9         -2.8565   -5.9220    2.9855 C.ar      1 <0>        -0.0740
     12 C10        -3.9815   -5.0939    2.8558 C.ar      1 <0>        -0.1750
     13 C11        -4.3112   -4.5823    1.6344 C.ar      1 <0>         0.1266
     14 O1         -5.3992   -3.7754    1.5130 O.3       1 <0>        -0.3132
     15 C12        -6.1422   -3.5048    2.7033 C.3       1 <0>         0.0202
     16 C13        -2.4896   -6.4608    4.2406 C.ar      1 <0>         0.2702
     17 C14        -1.3513   -7.2808    4.2938 C.ar      1 <0>        -0.1920
     18 C15        -0.6296   -7.5320    3.1157 C.ar      1 <0>         0.1650
     19 N3         -0.9916   -7.0199    1.9676 N.ar      1 <0>        -0.4608
     20 C16        -0.9188   -7.8704    5.5705 C.2       1 <0>         0.5614
     21 O2         -1.6016   -7.7303    6.5674 O.2       1 <0>        -0.5107
     22 N4          0.2339   -8.5658    5.6354 N.am      1 <0>        -0.8465
     23 N5         -3.2252   -6.1894    5.3745 N.pl3     1 <0>        -0.6843
     24 C17        -4.1207   -7.1430    5.8728 C.ar      1 <0>         0.1952
     25 C18        -4.1667   -8.4128    5.3134 C.ar      1 <0>        -0.1260
     26 C19        -5.0507   -9.3527    5.8068 C.ar      1 <0>        -0.1144
     27 C20        -5.8916   -9.0300    6.8587 C.ar      1 <0>         0.0839
     28 C21        -5.8488   -7.7647    7.4194 C.ar      1 <0>        -0.1446
     29 C22        -4.9617   -6.8219    6.9329 C.ar      1 <0>         0.0684
     30 F1         -4.9156   -5.5890    7.4834 F         1 <0>        -0.1326
     31 F2         -6.7556   -9.9513    7.3384 F         1 <0>        -0.1322
     32 H1         -5.9227   -1.1578   -3.6432 H         1 <0>         0.1236
     33 H2         -6.9458   -2.5816   -3.9501 H         1 <0>         0.1236
     34 H3         -7.0327   -1.7447   -2.3816 H         1 <0>         0.1204
     35 H4         -6.5213   -3.8297   -1.2141 H         1 <0>         0.1333
     36 H5         -6.5545   -4.6060   -2.8157 H         1 <0>         0.1360
     37 H6         -5.2561   -5.9230   -1.1014 H         1 <0>         0.1148
     38 H7         -4.2689   -5.4381   -2.5055 H         1 <0>         0.0822
     39 H8         -2.8532   -2.5685   -0.3636 H         1 <0>         0.1145
     40 H9         -2.6763   -3.2148   -2.0165 H         1 <0>         0.0821
     41 H10        -4.1607   -1.2641   -2.0806 H         1 <0>         0.1358
     42 H11        -5.1847   -1.9638   -0.8037 H         1 <0>         0.1332
     43 H12        -1.8404   -5.9212   -0.2732 H         1 <0>         0.1533
     44 H13        -4.5831   -4.8587    3.7213 H         1 <0>         0.1432
     45 H14        -6.9815   -2.8508    2.4668 H         1 <0>         0.1056
     46 H15        -6.5164   -4.4404    3.1187 H         1 <0>         0.0618
     47 H16        -5.4953   -3.0166    3.4323 H         1 <0>         0.0614
     48 H17         0.2458   -8.1630    3.1585 H         1 <0>         0.1699
     49 H18         0.7784   -8.6775    4.8405 H         1 <0>         0.4009
     50 H19         0.5190   -8.9545    6.4772 H         1 <0>         0.4123
     51 H20        -3.1223   -5.3376    5.8270 H         1 <0>         0.4203
     52 H21        -3.5120   -8.6656    4.4926 H         1 <0>         0.1303
     53 H22        -5.0863  -10.3404    5.3714 H         1 <0>         0.1434
     54 H23        -6.5058   -7.5152    8.2394 H         1 <0>         0.1519
     55 H24        -4.7012   -3.1915   -3.4241 H         1 <0>         0.4233
@<TRIPOS>BOND
     1    1    2 1
     2    1   32 1
     3    1   33 1
     4    1   34 1
     5    2    7 1
     6    2    3 1
     7    2   55 1
     8    3    4 1
     9    3   35 1
    10    3   36 1
    11    4    5 1
    12    4   37 1
    13    4   38 1
    14    5    6 1
    15    5    8 1
    16    6    7 1
    17    6   39 1
    18    6   40 1
    19    7   41 1
    20    7   42 1
    21    8   13 ar
    22    8    9 ar
    23    9   10 ar
    24    9   43 1
    25   10   19 ar
    26   10   11 ar
    27   11   12 ar
    28   11   16 ar
    29   12   13 ar
    30   12   44 1
    31   13   14 1
    32   14   15 1
    33   15   45 1
    34   15   46 1
    35   15   47 1
    36   16   17 ar
    37   16   23 1
    38   17   18 ar
    39   17   20 1
    40   18   19 ar
    41   18   48 1
    42   20   21 2
    43   20   22 am
    44   22   49 1
    45   22   50 1
    46   23   24 1
    47   23   51 1
    48   24   29 ar
    49   24   25 ar
    50   25   26 ar
    51   25   52 1
    52   26   27 ar
    53   26   53 1
    54   27   28 ar
    55   27   31 1
    56   28   29 ar
    57   28   54 1
    58   29   30 1
@<TRIPOS>MOLECULE
CHEMBL124660
   84    88     0     0     0
SMALL
USER_CHARGES

@<TRIPOS>ATOM
      1 C1          2.2725   -1.8944    0.9350 C.3       1 <0>        -0.1847
      2 C2          0.9347   -1.5267    0.2900 C.3       1 <0>         0.0778
      3 C3          1.1660   -1.1157   -1.1655 C.3       1 <0>        -0.1485
      4 O1          0.0591   -2.6552    0.3329 O.3       1 <0>        -0.3110
      5 C4         -0.5451   -2.9230    1.5213 C.ar      1 <0>         0.1176
      6 C5         -1.3953   -4.0129    1.6367 C.ar      1 <0>        -0.1328
      7 C6         -2.0093   -4.2854    2.8433 C.ar      1 <0>        -0.1095
      8 C7         -1.7750   -3.4684    3.9411 C.ar      1 <0>         0.1190
      9 C8         -0.9235   -2.3780    3.8251 C.ar      1 <0>        -0.0914
     10 C9         -0.3065   -2.1094    2.6192 C.ar      1 <0>        -0.1906
     11 N1         -2.3981   -3.7442    5.1658 N.am      1 <0>        -0.6802
     12 C10        -2.6402   -2.7460    6.0385 C.2       1 <0>         0.7099
     13 O2         -2.1935   -1.6345    5.8301 O.2       1 <0>        -0.5685
     14 N2         -3.3775   -2.9799    7.1422 N.am      1 <0>        -0.6233
     15 C11        -3.7651   -4.3500    7.5063 C.3       1 <0>         0.0941
     16 C12        -3.2922   -4.6289    8.9384 C.3       1 <0>         0.1351
     17 N3         -3.7225   -3.5186    9.7997 N.pl3     1 <0>        -0.6619
     18 C13        -3.3348   -2.1485    9.4356 C.3       1 <0>         0.1336
     19 C14        -3.8029   -1.8701    8.0066 C.3       1 <0>         0.1142
     20 C15        -4.4771   -3.7580   10.9294 C.ar      1 <0>         0.4747
     21 C16        -3.8626   -3.9055   12.1957 C.ar      1 <0>        -0.1508
     22 C17        -2.4748   -3.8164   12.3606 C.ar      1 <0>        -0.1322
     23 C18        -1.9306   -3.9658   13.6042 C.ar      1 <0>         0.1121
     24 C19        -2.7460   -4.2080   14.7189 C.ar      1 <0>         0.1567
     25 C20        -4.1133   -4.2999   14.5833 C.ar      1 <0>        -0.1777
     26 C21        -4.6928   -4.1495   13.3173 C.ar      1 <0>         0.1756
     27 N4         -6.0198   -4.2298   13.1319 N.ar      1 <0>        -0.5136
     28 C22        -6.5340   -4.0847   11.9340 C.ar      1 <0>         0.3185
     29 N5         -5.7984   -3.8506   10.8587 N.ar      1 <0>        -0.5351
     30 O3         -2.1812   -4.3540   15.9457 O.3       1 <0>        -0.2944
     31 C23        -3.0647   -4.5989   17.0417 C.3       1 <0>         0.0567
     32 C24        -2.2524   -4.7343   18.3312 C.3       1 <0>        -0.1500
     33 C25        -3.1984   -4.9966   19.5047 C.3       1 <0>        -0.0065
     34 N6         -2.4185   -5.1266   20.7428 N.4       1 <0>        -0.3814
     35 C26        -1.5575   -6.3121   20.6547 C.3       1 <0>        -0.0140
     36 C27        -0.6840   -6.4070   21.9075 C.3       1 <0>        -0.1459
     37 C28        -1.5827   -6.5174   23.1426 C.3       1 <0>        -0.1399
     38 C29        -2.5274   -5.3129   23.1837 C.3       1 <0>        -0.1464
     39 C30        -3.3326   -5.2585   21.8836 C.3       1 <0>        -0.0066
     40 O4         -0.5828   -3.8790   13.7632 O.3       1 <0>        -0.3036
     41 C31         0.1942   -3.6313   12.5899 C.3       1 <0>         0.0226
     42 H1          2.7225   -2.7243    0.3902 H         1 <0>         0.0680
     43 H2          2.9404   -1.0336    0.9023 H         1 <0>         0.0727
     44 H3          2.1077   -2.1872    1.9719 H         1 <0>         0.0638
     45 H4          0.4846   -0.6967    0.8348 H         1 <0>         0.0721
     46 H5          1.6161   -1.9457   -1.7102 H         1 <0>         0.0677
     47 H6          0.2130   -0.8538   -1.6249 H         1 <0>         0.0660
     48 H7          1.8339   -0.2549   -1.1982 H         1 <0>         0.0782
     49 H8         -1.5775   -4.6483    0.7826 H         1 <0>         0.1348
     50 H9         -2.6718   -5.1336    2.9328 H         1 <0>         0.1303
     51 H10        -0.7409   -1.7421    4.6787 H         1 <0>         0.1572
     52 H11         0.3591   -1.2636    2.5299 H         1 <0>         0.1323
     53 H12        -2.6551   -4.6534    5.3854 H         1 <0>         0.4044
     54 H13        -4.8492   -4.4498    7.4531 H         1 <0>         0.0824
     55 H14        -3.2962   -5.0569    6.8219 H         1 <0>         0.0844
     56 H15        -3.7331   -5.5601    9.2943 H         1 <0>         0.0845
     57 H16        -2.2051   -4.7057    8.9562 H         1 <0>         0.0680
     58 H17        -3.8038   -1.4415   10.1200 H         1 <0>         0.0840
     59 H18        -2.2507   -2.0487    9.4888 H         1 <0>         0.0680
     60 H19        -3.3589   -0.9397    7.6525 H         1 <0>         0.1062
     61 H20        -4.8898   -1.7893    7.9898 H         1 <0>         0.0754
     62 H21        -1.8379   -3.6308   11.5084 H         1 <0>         0.1517
     63 H22        -4.7341   -4.4871   15.4469 H         1 <0>         0.1518
     64 H23        -7.6057   -4.1552   11.8206 H         1 <0>         0.1991
     65 H24        -3.7633   -3.7678   17.1380 H         1 <0>         0.0780
     66 H25        -3.6188   -5.5204   16.8629 H         1 <0>         0.0776
     67 H26        -1.5538   -5.5655   18.2349 H         1 <0>         0.1005
     68 H27        -1.6984   -3.8128   18.5101 H         1 <0>         0.1008
     69 H28        -3.8970   -4.1654   19.6010 H         1 <0>         0.1361
     70 H29        -3.7525   -5.9181   19.3259 H         1 <0>         0.1342
     71 H30        -2.1771   -7.2055   20.5758 H         1 <0>         0.1295
     72 H31        -0.9209   -6.2336   19.7735 H         1 <0>         0.1323
     73 H32        -0.0468   -7.2889   21.8410 H         1 <0>         0.1125
     74 H33        -0.0639   -5.5142   21.9873 H         1 <0>         0.0880
     75 H34        -2.1661   -7.4365   23.0879 H         1 <0>         0.0819
     76 H35        -0.9667   -6.5284   24.0418 H         1 <0>         0.0946
     77 H36        -3.2079   -5.4127   24.0293 H         1 <0>         0.1129
     78 H37        -1.9455   -4.3974   23.2899 H         1 <0>         0.0880
     79 H38        -4.0065   -4.4022   21.9096 H         1 <0>         0.1310
     80 H39        -3.9143   -6.1743   21.7785 H         1 <0>         0.1292
     81 H40         0.0352   -4.4360   11.8721 H         1 <0>         0.0597
     82 H41        -0.1099   -2.6833   12.1461 H         1 <0>         0.0604
     83 H42         1.2502   -3.5855   12.8564 H         1 <0>         0.1082
     84 H43        -1.8452   -4.3055   20.8657 H         1 <0>         0.4238
@<TRIPOS>BOND
     1    1    2 1
     2    1   42 1
     3    1   43 1
     4    1   44 1
     5    2    3 1
     6    2    4 1
     7    2   45 1
     8    3   46 1
     9    3   47 1
    10    3   48 1
    11    4    5 1
    12    5   10 ar
    13    5    6 ar
    14    6    7 ar
    15    6   49 1
    16    7    8 ar
    17    7   50 1
    18    8    9 ar
    19    8   11 1
    20    9   10 ar
    21    9   51 1
    22   10   52 1
    23   11   12 am
    24   11   53 1
    25   12   13 2
    26   12   14 am
    27   14   19 1
    28   14   15 1
    29   15   16 1
    30   15   54 1
    31   15   55 1
    32   16   17 1
    33   16   56 1
    34   16   57 1
    35   17   18 1
    36   17   20 1
    37   18   19 1
    38   18   58 1
    39   18   59 1
    40   19   60 1
    41   19   61 1
    42   20   29 ar
    43   20   21 ar
    44   21   26 ar
    45   21   22 ar
    46   22   23 ar
    47   22   62 1
    48   23   24 ar
    49   23   40 1
    50   24   25 ar
    51   24   30 1
    52   25   26 ar
    53   25   63 1
    54   26   27 ar
    55   27   28 ar
    56   28   29 ar
    57   28   64 1
    58   30   31 1
    59   31   32 1
    60   31   65 1
    61   31   66 1
    62   32   33 1
    63   32   67 1
    64   32   68 1
    65   33   34 1
    66   33   69 1
    67   33   70 1
    68   34   39 1
    69   34   35 1
    70   34   84 1
    71   35   36 1
    72   35   71 1
    73   35   72 1
    74   36   37 1
    75   36   73 1
    76   36   74 1
    77   37   38 1
    78   37   75 1
    79   37   76 1
    80   38   39 1
    81   38   77 1
    82   38   78 1
    83   39   79 1
    84   39   80 1
    85   40   41 1
    86   41   81 1
    87   41   82 1
    88   41   83 1
@<TRIPOS>MOLECULE
CHEMBL124660__1
   85    89     0     0     0
SMALL
USER_CHARGES

@<TRIPOS>ATOM
      1 C1         -1.3637    0.6186    2.5877 C.3       1 <0>        -0.1511
      2 C2         -1.3617   -0.4694    1.5121 C.3       1 <0>         0.0789
      3 C3         -0.5714    0.0173    0.2957 C.3       1 <0>        -0.1841
      4 O1         -0.7534   -1.6530    2.0329 O.3       1 <0>        -0.3099
      5 C4         -1.1073   -2.8333    1.4579 C.ar      1 <0>         0.1229
      6 C5         -0.7262   -4.0316    2.0435 C.ar      1 <0>        -0.1318
      7 C6         -1.0853   -5.2306    1.4600 C.ar      1 <0>        -0.1072
      8 C7         -1.8284   -5.2365    0.2873 C.ar      1 <0>         0.1104
      9 C8         -2.2100   -4.0368   -0.2981 C.ar      1 <0>        -0.0914
     10 C9         -1.8543   -2.8385    0.2890 C.ar      1 <0>        -0.1901
     11 N1         -2.1928   -6.4530   -0.3056 N.am      1 <0>        -0.6760
     12 C10        -2.4275   -6.5129   -1.6314 C.2       1 <0>         0.7094
     13 O2         -2.4398   -5.4930   -2.2933 O.2       1 <0>        -0.5607
     14 N2         -2.6484   -7.7033   -2.2236 N.am      1 <0>        -0.6286
     15 C11        -2.7889   -8.9247   -1.4183 C.3       1 <0>         0.0929
     16 C12        -4.1245   -9.5920   -1.7691 C.3       1 <0>         0.1282
     17 N3         -4.2297   -9.6919   -3.2316 N.pl3     1 <0>        -0.6705
     18 C13        -4.0892   -8.4705   -4.0368 C.3       1 <0>         0.1270
     19 C14        -2.7592   -7.8023   -3.6857 C.3       1 <0>         0.1138
     20 C15        -4.4559  -10.9104   -3.8377 C.ar      1 <0>         0.5718
     21 C16        -5.7679  -11.3245   -4.1690 C.ar      1 <0>        -0.1328
     22 C17        -6.8868  -10.5263   -3.9005 C.ar      1 <0>        -0.1144
     23 C18        -8.1324  -10.9715   -4.2403 C.ar      1 <0>         0.1357
     24 C19        -8.3041  -12.2199   -4.8551 C.ar      1 <0>         0.2231
     25 C20        -7.2202  -13.0236   -5.1298 C.ar      1 <0>        -0.2300
     26 C21        -5.9336  -12.5867   -4.7904 C.ar      1 <0>         0.1817
     27 N4         -4.8447  -13.3319   -5.0371 N.ar      1 <0>        -0.5084
     28 C22        -3.6522  -12.8962   -4.7077 C.ar      1 <0>         0.4191
     29 N5         -3.4488  -11.7225   -4.1305 N.ar      1 <0>        -0.5084
     30 O3         -9.5532  -12.6414   -5.1828 O.3       1 <0>        -0.2744
     31 C23        -9.6629  -13.9222   -5.8069 C.3       1 <0>         0.0510
     32 C24       -11.1343  -14.2228   -6.0992 C.3       1 <0>        -0.1544
     33 C25       -11.2517  -15.5942   -6.7674 C.3       1 <0>        -0.0054
     34 N6        -12.6644  -15.8828   -7.0481 N.4       1 <0>        -0.3822
     35 C26       -13.4004  -15.9936   -5.7829 C.3       1 <0>        -0.0134
     36 C27       -14.8871  -16.2137   -6.0709 C.3       1 <0>        -0.1468
     37 C28       -15.0596  -17.5035   -6.8783 C.3       1 <0>        -0.1410
     38 C29       -14.2282  -17.4064   -8.1607 C.3       1 <0>        -0.1475
     39 C30       -12.7659  -17.1421   -7.7953 C.3       1 <0>        -0.0062
     40 O4         -9.2182  -10.1956   -3.9791 O.3       1 <0>        -0.2869
     41 C31        -8.9785   -8.9346   -3.3509 C.3       1 <0>         0.0137
     42 H1         -1.8277    1.5214    2.1905 H         1 <0>         0.0791
     43 H2         -1.9267    0.2719    3.4543 H         1 <0>         0.0657
     44 H3         -0.3381    0.8378    2.8847 H         1 <0>         0.0692
     45 H4         -2.3873   -0.6886    1.2151 H         1 <0>         0.0722
     46 H5         -0.5700   -0.7579   -0.4706 H         1 <0>         0.0628
     47 H6         -1.0354    0.9201   -0.1015 H         1 <0>         0.0742
     48 H7          0.4542    0.2364    0.5928 H         1 <0>         0.0699
     49 H8         -0.1482   -4.0268    2.9558 H         1 <0>         0.1370
     50 H9         -0.7879   -6.1635    1.9157 H         1 <0>         0.1304
     51 H10        -2.7881   -4.0408   -1.2103 H         1 <0>         0.1567
     52 H11        -2.1545   -1.9053   -0.1640 H         1 <0>         0.1341
     53 H12        -2.2762   -7.2519    0.2383 H         1 <0>         0.4035
     54 H13        -1.9689   -9.6070   -1.6425 H         1 <0>         0.0852
     55 H14        -2.7752   -8.6680   -0.3590 H         1 <0>         0.0941
     56 H15        -4.1614  -10.5893   -1.3308 H         1 <0>         0.0904
     57 H16        -4.9469   -8.9896   -1.3835 H         1 <0>         0.0853
     58 H17        -4.1028   -8.7272   -5.0961 H         1 <0>         0.0901
     59 H18        -4.9091   -7.7882   -3.8126 H         1 <0>         0.0841
     60 H19        -2.7260   -6.8046   -4.1234 H         1 <0>         0.1159
     61 H20        -1.9371   -8.4029   -4.0750 H         1 <0>         0.0782
     62 H21        -6.7653   -9.5634   -3.4266 H         1 <0>         0.1759
     63 H22        -7.3612  -13.9839   -5.6032 H         1 <0>         0.1707
     64 H23        -2.7976  -13.5214   -4.9207 H         1 <0>         0.2475
     65 H24        -9.0999  -13.9211   -6.7402 H         1 <0>         0.0859
     66 H25        -9.2613  -14.6863   -5.1413 H         1 <0>         0.0855
     67 H26       -11.6973  -14.2240   -5.1659 H         1 <0>         0.1059
     68 H27       -11.5359  -13.4588   -6.7649 H         1 <0>         0.1062
     69 H28       -10.6887  -15.5931   -7.7007 H         1 <0>         0.1358
     70 H29       -10.8501  -16.3582   -6.1018 H         1 <0>         0.1341
     71 H30       -13.0130  -16.8364   -5.2104 H         1 <0>         0.1301
     72 H31       -13.2740  -15.0762   -5.2081 H         1 <0>         0.1306
     73 H32       -15.4315  -16.2975   -5.1303 H         1 <0>         0.1145
     74 H33       -15.2755  -15.3713   -6.6432 H         1 <0>         0.0892
     75 H34       -14.7183  -18.3526   -6.2861 H         1 <0>         0.0827
     76 H35       -16.1108  -17.6353   -7.1345 H         1 <0>         0.0974
     77 H36       -14.3016  -18.3427   -8.7138 H         1 <0>         0.1154
     78 H37       -14.6030  -16.5888   -8.7764 H         1 <0>         0.0893
     79 H38       -12.1712  -17.0726   -8.7061 H         1 <0>         0.1313
     80 H39       -12.3921  -17.9604   -7.1799 H         1 <0>         0.1298
     81 H40        -8.4944   -9.0948   -2.3875 H         1 <0>         0.0693
     82 H41        -8.3319   -8.3293   -3.9862 H         1 <0>         0.0700
     83 H42        -9.9263   -8.4180   -3.1999 H         1 <0>         0.1229
     84 H43       -13.0568  -15.1337   -7.5986 H         1 <0>         0.4252
     85 H44        -4.9405  -14.1987   -5.4617 H         1 <0>         0.4509
@<TRIPOS>BOND
     1    1    2 1
     2    1   42 1
     3    1   43 1
     4    1   44 1
     5    2    3 1
     6    2    4 1
     7    2   45 1
     8    3   46 1
     9    3   47 1
    10    3   48 1
    11    4    5 1
    12    5   10 ar
    13    5    6 ar
    14    6    7 ar
    15    6   49 1
    16    7    8 ar
    17    7   50 1
    18    8    9 ar
    19    8   11 1
    20    9   10 ar
    21    9   51 1
    22   10   52 1
    23   11   12 am
    24   11   53 1
    25   12   13 2
    26   12   14 am
    27   14   19 1
    28   14   15 1
    29   15   16 1
    30   15   54 1
    31   15   55 1
    32   16   17 1
    33   16   56 1
    34   16   57 1
    35   17   18 1
    36   17   20 1
    37   18   19 1
    38   18   58 1
    39   18   59 1
    40   19   60 1
    41   19   61 1
    42   20   29 ar
    43   20   21 ar
    44   21   26 ar
    45   21   22 ar
    46   22   23 ar
    47   22   62 1
    48   23   24 ar
    49   23   40 1
    50   24   25 ar
    51   24   30 1
    52   25   26 ar
    53   25   63 1
    54   26   27 ar
    55   27   28 ar
    56   27   85 1
    57   28   29 ar
    58   28   64 1
    59   30   31 1
    60   31   32 1
    61   31   65 1
    62   31   66 1
    63   32   33 1
    64   32   67 1
    65   32   68 1
    66   33   34 1
    67   33   69 1
    68   33   70 1
    69   34   39 1
    70   34   35 1
    71   34   84 1
    72   35   36 1
    73   35   71 1
    74   35   72 1
    75   36   37 1
    76   36   73 1
    77   36   74 1
    78   37   38 1
    79   37   75 1
    80   37   76 1
    81   38   39 1
    82   38   77 1
    83   38   78 1
    84   39   79 1
    85   39   80 1
    86   40   41 1
    87   41   81 1
    88   41   82 1
    89   41   83 1
@<TRIPOS>MOLECULE
CHEMBL452664
   55    57     0     0     0
SMALL
USER_CHARGES

@<TRIPOS>ATOM
      1 C1         -1.9540   -3.4611    7.8309 C.3       1 <0>        -0.0486
      2 N1         -1.6790   -4.0196    6.5004 N.4       1 <0>        -0.3830
      3 C2         -0.5783   -4.9880    6.5937 C.3       1 <0>        -0.0577
      4 C3         -2.8822   -4.6931    5.9938 C.3       1 <0>        -0.0233
      5 C4         -2.6363   -5.1659    4.5596 C.3       1 <0>         0.0904
      6 N2         -3.8363   -5.8376    4.0544 N.pl3     1 <0>        -0.7217
      7 C5         -3.8519   -6.3591    2.7562 C.ar      1 <0>         0.2235
      8 C6         -2.7352   -6.2436    1.9591 C.ar      1 <0>        -0.1320
      9 C7         -2.7527   -6.7674    0.6584 C.ar      1 <0>        -0.0712
     10 C8         -3.9154   -7.4113    0.1708 C.ar      1 <0>         0.1639
     11 C9         -5.0412   -7.5165    1.0013 C.ar      1 <0>        -0.2186
     12 C10        -5.0036   -7.0017    2.2767 C.ar      1 <0>         0.1889
     13 O1         -6.0948   -7.1119    3.0784 O.3       1 <0>        -0.2958
     14 C11        -7.2361   -7.7767    2.5329 C.3       1 <0>         0.0142
     15 N3         -3.9370   -7.9149   -1.0728 N.ar      1 <0>        -0.4496
     16 C12        -2.9049   -7.8341   -1.8722 C.ar      1 <0>         0.2239
     17 C13        -1.7106   -7.2128   -1.4721 C.ar      1 <0>        -0.1956
     18 C14        -1.6205   -6.6643   -0.1836 C.ar      1 <0>         0.3722
     19 N4         -0.4661   -6.0454    0.2479 N.pl3     1 <0>        -0.6959
     20 C15         0.5454   -6.7968    0.8534 C.ar      1 <0>         0.2330
     21 C16         0.4442   -8.1810    0.9118 C.ar      1 <0>        -0.1702
     22 C17         1.4451   -8.9211    1.5102 C.ar      1 <0>        -0.0509
     23 C18         2.5481   -8.2864    2.0514 C.ar      1 <0>        -0.1320
     24 C19         2.6532   -6.9077    1.9961 C.ar      1 <0>         0.0116
     25 C20         1.6571   -6.1610    1.3931 C.ar      1 <0>        -0.0893
     26 Cl1         1.7920   -4.4319    1.3171 Cl        1 <0>        -0.0395
     27 Cl2         4.0392   -6.1153    2.6779 Cl        1 <0>        -0.0275
     28 C21        -0.5664   -7.1375   -2.3943 C.2       1 <0>         0.5648
     29 O2          0.4974   -6.6912   -2.0084 O.2       1 <0>        -0.4856
     30 N5         -0.6969   -7.5630   -3.6664 N.am      1 <0>        -0.8392
     31 H1         -1.0612   -2.9613    8.2068 H         1 <0>         0.1322
     32 H2         -2.7707   -2.7425    7.7617 H         1 <0>         0.1272
     33 H3         -2.2341   -4.2650    8.5116 H         1 <0>         0.1261
     34 H4         -0.3743   -5.4024    5.6064 H         1 <0>         0.1224
     35 H5          0.3145   -4.4882    6.9696 H         1 <0>         0.1334
     36 H6         -0.8584   -5.7919    7.2744 H         1 <0>         0.1275
     37 H7         -3.1110   -5.5516    6.6252 H         1 <0>         0.1416
     38 H8         -3.7212   -3.9975    6.0083 H         1 <0>         0.1423
     39 H9         -2.4075   -4.3074    3.9282 H         1 <0>         0.0917
     40 H10        -1.7973   -5.8615    4.5451 H         1 <0>         0.0923
     41 H11        -4.6199   -5.9208    4.6200 H         1 <0>         0.4238
     42 H12        -1.8498   -5.7515    2.3339 H         1 <0>         0.1613
     43 H13        -5.9346   -8.0053    0.6417 H         1 <0>         0.1720
     44 H14        -7.5774   -7.2436    1.6455 H         1 <0>         0.0736
     45 H15        -6.9671   -8.7977    2.2624 H         1 <0>         0.0736
     46 H16        -8.0345   -7.7957    3.2747 H         1 <0>         0.1249
     47 H17        -2.9726   -8.2558   -2.8642 H         1 <0>         0.2148
     48 H18        -0.3559   -5.0888    0.1312 H         1 <0>         0.4319
     49 H19        -0.4167   -8.6781    0.4899 H         1 <0>         0.1239
     50 H20         1.3660   -9.9972    1.5558 H         1 <0>         0.1460
     51 H21         3.3290   -8.8681    2.5186 H         1 <0>         0.1498
     52 H22        -1.5452   -7.9189   -3.9741 H         1 <0>         0.3993
     53 H23         0.0574   -7.5133   -4.2743 H         1 <0>         0.4251
     54 H24        -1.4197   -3.2754    5.8703 H         1 <0>         0.4303
     55 H25        -4.7429   -8.3528   -1.3886 H         1 <0>         0.4539
@<TRIPOS>BOND
     1    1    2 1
     2    1   31 1
     3    1   32 1
     4    1   33 1
     5    2    3 1
     6    2    4 1
     7    2   54 1
     8    3   34 1
     9    3   35 1
    10    3   36 1
    11    4    5 1
    12    4   37 1
    13    4   38 1
    14    5    6 1
    15    5   39 1
    16    5   40 1
    17    6    7 1
    18    6   41 1
    19    7   12 ar
    20    7    8 ar
    21    8    9 ar
    22    8   42 1
    23    9   18 ar
    24    9   10 ar
    25   10   11 ar
    26   10   15 ar
    27   11   12 ar
    28   11   43 1
    29   12   13 1
    30   13   14 1
    31   14   44 1
    32   14   45 1
    33   14   46 1
    34   15   16 ar
    35   15   55 1
    36   16   17 ar
    37   16   47 1
    38   17   18 ar
    39   17   28 1
    40   18   19 1
    41   19   20 1
    42   19   48 1
    43   20   25 ar
    44   20   21 ar
    45   21   22 ar
    46   21   49 1
    47   22   23 ar
    48   22   50 1
    49   23   24 ar
    50   23   51 1
    51   24   25 ar
    52   24   27 1
    53   25   26 1
    54   28   29 2
    55   28   30 am
    56   30   52 1
    57   30   53 1
@<TRIPOS>MOLECULE
CHEMBL452664__1
   54    56     0     0     0
SMALL
USER_CHARGES

@<TRIPOS>ATOM
      1 C1          3.8009   -5.1480    1.3123 C.3       1 <0>        -0.0561
      2 N1          5.1494   -5.6996    1.5006 N.4       1 <0>        -0.3833
      3 C2          5.0500   -7.1067    1.9105 C.3       1 <0>        -0.0467
      4 C3          5.8961   -5.6087    0.2388 C.3       1 <0>        -0.0219
      5 C4          6.1076   -4.1374   -0.1238 C.3       1 <0>         0.1011
      6 N2          6.8523   -4.0467   -1.3821 N.pl3     1 <0>        -0.7383
      7 C5          7.1678   -2.7941   -1.9196 C.ar      1 <0>         0.2011
      8 C6          6.7812   -1.6494   -1.2595 C.ar      1 <0>        -0.1470
      9 C7          7.0988   -0.3948   -1.7997 C.ar      1 <0>        -0.0930
     10 C8          7.8139   -0.3100   -3.0186 C.ar      1 <0>         0.1578
     11 C9          8.1967   -1.4904   -3.6732 C.ar      1 <0>        -0.1608
     12 C10         7.8814   -2.7124   -3.1253 C.ar      1 <0>         0.1210
     13 O1          8.2601   -3.8518   -3.7607 O.3       1 <0>        -0.3169
     14 C11         8.9838   -3.7026   -4.9838 C.3       1 <0>         0.0236
     15 N3          8.1210    0.8879   -3.5392 N.ar      1 <0>        -0.4631
     16 C12         7.7795    2.0069   -2.9543 C.ar      1 <0>         0.1625
     17 C13         7.0690    2.0175   -1.7430 C.ar      1 <0>        -0.1980
     18 C14         6.7153    0.7987   -1.1440 C.ar      1 <0>         0.2640
     19 N4          6.0173    0.7655    0.0449 N.pl3     1 <0>        -0.6790
     20 C15         6.7067    0.7863    1.2610 C.ar      1 <0>         0.2569
     21 C16         8.0844    0.9632    1.2772 C.ar      1 <0>        -0.1688
     22 C17         8.7630    0.9839    2.4798 C.ar      1 <0>        -0.0528
     23 C18         8.0733    0.8288    3.6683 C.ar      1 <0>        -0.1508
     24 C19         6.7009    0.6518    3.6573 C.ar      1 <0>         0.0131
     25 C20         6.0144    0.6358    2.4566 C.ar      1 <0>        -0.1024
     26 Cl1         4.2918    0.4210    2.4427 Cl        1 <0>        -0.0538
     27 Cl2         5.8394    0.4562    5.1518 Cl        1 <0>        -0.0459
     28 C21         6.6989    3.2928   -1.1090 C.2       1 <0>         0.5643
     29 O2          6.1753    3.2968   -0.0111 O.2       1 <0>        -0.5171
     30 N5          6.9401    4.4565   -1.7448 N.am      1 <0>        -0.8474
     31 H1          3.8746   -4.1039    1.0081 H         1 <0>         0.1248
     32 H2          3.2808   -5.7154    0.5406 H         1 <0>         0.1252
     33 H3          3.2468   -5.2155    2.2485 H         1 <0>         0.1294
     34 H4          4.5299   -7.6741    1.1388 H         1 <0>         0.1237
     35 H5          6.0506   -7.5159    2.0502 H         1 <0>         0.1253
     36 H6          4.4959   -7.1741    2.8467 H         1 <0>         0.1285
     37 H7          6.8637   -6.0973    0.3533 H         1 <0>         0.1391
     38 H8          5.3320   -6.1007   -0.5535 H         1 <0>         0.1380
     39 H9          5.1400   -3.6487   -0.2383 H         1 <0>         0.0820
     40 H10         6.6717   -3.6453    0.6685 H         1 <0>         0.0823
     41 H11         7.1267   -4.8551   -1.8426 H         1 <0>         0.4144
     42 H12         6.2354   -1.7173   -0.3300 H         1 <0>         0.1365
     43 H13         8.7427   -1.4398   -4.6037 H         1 <0>         0.1539
     44 H14         8.3739   -3.1553   -5.7025 H         1 <0>         0.0644
     45 H15         9.9056   -3.1520   -4.7958 H         1 <0>         0.0646
     46 H16         9.2242   -4.6867   -5.3862 H         1 <0>         0.1086
     47 H17         8.0509    2.9458   -3.4140 H         1 <0>         0.1670
     48 H18         5.0481    0.7277    0.0374 H         1 <0>         0.4174
     49 H19         8.6245    1.0842    0.3498 H         1 <0>         0.1285
     50 H20         9.8342    1.1211    2.4921 H         1 <0>         0.1397
     51 H21         8.6069    0.8454    4.6071 H         1 <0>         0.1418
     52 H22         7.3576    4.4533   -2.6204 H         1 <0>         0.4013
     53 H23         6.6961    5.2971   -1.3269 H         1 <0>         0.4110
     54 H24         5.6309   -5.1743    2.2150 H         1 <0>         0.4302
@<TRIPOS>BOND
     1    1    2 1
     2    1   31 1
     3    1   32 1
     4    1   33 1
     5    2    3 1
     6    2    4 1
     7    2   54 1
     8    3   34 1
     9    3   35 1
    10    3   36 1
    11    4    5 1
    12    4   37 1
    13    4   38 1
    14    5    6 1
    15    5   39 1
    16    5   40 1
    17    6    7 1
    18    6   41 1
    19    7   12 ar
    20    7    8 ar
    21    8    9 ar
    22    8   42 1
    23    9   18 ar
    24    9   10 ar
    25   10   11 ar
    26   10   15 ar
    27   11   12 ar
    28   11   43 1
    29   12   13 1
    30   13   14 1
    31   14   44 1
    32   14   45 1
    33   14   46 1
    34   15   16 ar
    35   16   17 ar
    36   16   47 1
    37   17   18 ar
    38   17   28 1
    39   18   19 1
    40   19   20 1
    41   19   48 1
    42   20   25 ar
    43   20   21 ar
    44   21   22 ar
    45   21   49 1
    46   22   23 ar
    47   22   50 1
    48   23   24 ar
    49   23   51 1
    50   24   25 ar
    51   24   27 1
    52   25   26 1
    53   28   29 2
    54   28   30 am
    55   30   52 1
    56   30   53 1
@<TRIPOS>MOLECULE
CHEMBL941
   69    73     0     0     0
SMALL
USER_CHARGES

@<TRIPOS>ATOM
      1 C1         -0.1643    1.5374    0.2772 C.3       1 <0>        -0.1166
      2 C2          0.0708    0.1281   -0.2021 C.ar      1 <0>        -0.1228
      3 C3         -0.6192   -0.3521   -1.2987 C.ar      1 <0>        -0.0806
      4 C4         -0.4070   -1.6434   -1.7410 C.ar      1 <0>        -0.1294
      5 C5          0.5017   -2.4641   -1.0837 C.ar      1 <0>         0.1504
      6 C6          1.1965   -1.9850    0.0175 C.ar      1 <0>        -0.1394
      7 C7          0.9852   -0.6852    0.4558 C.ar      1 <0>         0.1826
      8 N1          1.6874   -0.1967    1.5617 N.pl3     1 <0>        -0.6314
      9 C8          2.1285   -1.0695    2.5429 C.ar      1 <0>         0.5659
     10 N2          1.7764   -2.3456    2.4776 N.ar      1 <0>        -0.5577
     11 C9          2.1776   -3.2107    3.3953 C.ar      1 <0>         0.1910
     12 C10         2.9764   -2.7714    4.4364 C.ar      1 <0>        -0.2706
     13 C11         3.3313   -1.4207    4.4789 C.ar      1 <0>         0.2697
     14 N3          2.8950   -0.6087    3.5185 N.ar      1 <0>        -0.5576
     15 C12         4.1856   -0.9008    5.5740 C.ar      1 <0>        -0.1200
     16 C13         4.4510    0.4679    5.6793 C.ar      1 <0>        -0.0267
     17 C14         5.2541    0.9026    6.7193 C.ar      1 <0>        -0.1772
     18 C15         5.7636   -0.0222    7.6129 C.ar      1 <0>         0.1192
     19 N4          5.4957   -1.3077    7.4879 N.ar      1 <0>        -0.4844
     20 C16         4.7320   -1.7677    6.5181 C.ar      1 <0>         0.1336
     21 N5          0.7153   -3.7716   -1.5315 N.am      1 <0>        -0.6649
     22 C17         0.7404   -4.0356   -2.8529 C.2       1 <0>         0.5545
     23 O1          0.4912   -3.1555   -3.6535 O.2       1 <0>        -0.5086
     24 C18         1.0709   -5.3955   -3.3287 C.ar      1 <0>        -0.1216
     25 C19         1.3519   -6.4100   -2.4119 C.ar      1 <0>        -0.0841
     26 C20         1.6592   -7.6771   -2.8626 C.ar      1 <0>        -0.1244
     27 C21         1.6892   -7.9435   -4.2200 C.ar      1 <0>        -0.0692
     28 C22         1.4117   -6.9425   -5.1341 C.ar      1 <0>        -0.0994
     29 C23         1.0978   -5.6724   -4.6966 C.ar      1 <0>        -0.0536
     30 C24         2.0262   -9.3299   -4.7050 C.3       1 <0>         0.0939
     31 N6          0.7933  -10.1196   -4.8258 N.3       1 <0>        -0.5345
     32 C25         0.1866  -10.3538   -3.5078 C.3       1 <0>         0.0185
     33 C26        -1.1228  -11.1262   -3.6823 C.3       1 <0>        -0.0025
     34 N7         -0.8513  -12.4061   -4.3498 N.4       1 <0>        -0.3884
     35 C27        -0.2685  -12.1554   -5.6746 C.3       1 <0>        -0.0024
     36 C28         1.0481  -11.3916   -5.5166 C.3       1 <0>         0.0250
     37 C29        -2.1059  -13.1551   -4.5009 C.3       1 <0>        -0.0460
     38 H1          0.5251    2.2130   -0.2290 H         1 <0>         0.0728
     39 H2         -1.1901    1.8307    0.0540 H         1 <0>         0.0743
     40 H3          0.0021    1.5877    1.3533 H         1 <0>         0.0627
     41 H4         -1.3262    0.2836   -1.8111 H         1 <0>         0.1320
     42 H5         -0.9481   -2.0158   -2.5982 H         1 <0>         0.1349
     43 H6          1.9030   -2.6209    0.5302 H         1 <0>         0.1479
     44 H7          1.8658    0.7534    1.6418 H         1 <0>         0.4260
     45 H8          1.8844   -4.2483    3.3325 H         1 <0>         0.1734
     46 H9          3.3172   -3.4566    5.1985 H         1 <0>         0.1507
     47 H10         4.0401    1.1680    4.9670 H         1 <0>         0.1466
     48 H11         5.4807    1.9525    6.8318 H         1 <0>         0.1437
     49 H12         6.3909    0.3135    8.4254 H         1 <0>         0.1633
     50 H13         4.5316   -2.8268    6.4514 H         1 <0>         0.1617
     51 H14         0.8453   -4.4884   -0.8911 H         1 <0>         0.4084
     52 H15         1.3291   -6.2032   -1.3521 H         1 <0>         0.1294
     53 H16         1.8771   -8.4627   -2.1544 H         1 <0>         0.1265
     54 H17         1.4372   -7.1570   -6.1922 H         1 <0>         0.1340
     55 H18         0.8770   -4.8931   -5.4110 H         1 <0>         0.1424
     56 H19         2.5135   -9.2661   -5.6779 H         1 <0>         0.1008
     57 H20         2.6973   -9.8107   -3.9933 H         1 <0>         0.0595
     58 H21         0.8718  -10.9344   -2.8900 H         1 <0>         0.0618
     59 H22        -0.0167   -9.3975   -3.0259 H         1 <0>         0.1265
     60 H23        -1.5673  -11.3133   -2.7048 H         1 <0>         0.1359
     61 H24        -1.8127  -10.5393   -4.2887 H         1 <0>         0.1379
     62 H25        -0.0795  -13.1056   -6.1741 H         1 <0>         0.1367
     63 H26        -0.9627  -11.5633   -6.2708 H         1 <0>         0.1381
     64 H27         1.4733  -11.1924   -6.5003 H         1 <0>         0.1253
     65 H28         1.7474  -11.9892   -4.9320 H         1 <0>         0.0621
     66 H29        -2.8061  -12.5737   -5.1008 H         1 <0>         0.1233
     67 H30        -1.9046  -14.1049   -4.9963 H         1 <0>         0.1246
     68 H31        -2.5379  -13.3423   -3.5179 H         1 <0>         0.1243
     69 H32        -0.2036  -12.9443   -3.7940 H         1 <0>         0.4222
@<TRIPOS>BOND
     1    1    2 1
     2    1   38 1
     3    1   39 1
     4    1   40 1
     5    2    7 ar
     6    2    3 ar
     7    3    4 ar
     8    3   41 1
     9    4    5 ar
    10    4   42 1
    11    5    6 ar
    12    5   21 1
    13    6    7 ar
    14    6   43 1
    15    7    8 1
    16    8    9 1
    17    8   44 1
    18    9   14 ar
    19    9   10 ar
    20   10   11 ar
    21   11   12 ar
    22   11   45 1
    23   12   13 ar
    24   12   46 1
    25   13   14 ar
    26   13   15 1
    27   15   20 ar
    28   15   16 ar
    29   16   17 ar
    30   16   47 1
    31   17   18 ar
    32   17   48 1
    33   18   19 ar
    34   18   49 1
    35   19   20 ar
    36   20   50 1
    37   21   22 am
    38   21   51 1
    39   22   23 2
    40   22   24 1
    41   24   29 ar
    42   24   25 ar
    43   25   26 ar
    44   25   52 1
    45   26   27 ar
    46   26   53 1
    47   27   28 ar
    48   27   30 1
    49   28   29 ar
    50   28   54 1
    51   29   55 1
    52   30   31 1
    53   30   56 1
    54   30   57 1
    55   31   36 1
    56   31   32 1
    57   32   33 1
    58   32   58 1
    59   32   59 1
    60   33   34 1
    61   33   60 1
    62   33   61 1
    63   34   35 1
    64   34   37 1
    65   34   69 1
    66   35   36 1
    67   35   62 1
    68   35   63 1
    69   36   64 1
    70   36   65 1
    71   37   66 1
    72   37   67 1
    73   37   68 1
@<TRIPOS>MOLECULE
CHEMBL941__1
   69    73     0     0     0
SMALL
USER_CHARGES

@<TRIPOS>ATOM
      1 C1         -0.1643    1.5374    0.2772 C.3       1 <0>        -0.1179
      2 C2          0.0708    0.1281   -0.2021 C.ar      1 <0>        -0.1195
      3 C3         -0.6192   -0.3521   -1.2987 C.ar      1 <0>        -0.0803
      4 C4         -0.4070   -1.6434   -1.7410 C.ar      1 <0>        -0.1287
      5 C5          0.5017   -2.4641   -1.0837 C.ar      1 <0>         0.1452
      6 C6          1.1965   -1.9850    0.0175 C.ar      1 <0>        -0.1374
      7 C7          0.9852   -0.6852    0.4558 C.ar      1 <0>         0.1839
      8 N1          1.6874   -0.1967    1.5617 N.pl3     1 <0>        -0.6318
      9 C8          2.1285   -1.0695    2.5429 C.ar      1 <0>         0.5654
     10 N2          1.7764   -2.3456    2.4776 N.ar      1 <0>        -0.5590
     11 C9          2.1776   -3.2107    3.3953 C.ar      1 <0>         0.1907
     12 C10         2.9764   -2.7714    4.4364 C.ar      1 <0>        -0.2695
     13 C11         3.3313   -1.4207    4.4789 C.ar      1 <0>         0.2707
     14 N3          2.8950   -0.6087    3.5185 N.ar      1 <0>        -0.5571
     15 C12         4.1856   -0.9008    5.5740 C.ar      1 <0>        -0.1213
     16 C13         4.4510    0.4679    5.6793 C.ar      1 <0>        -0.0264
     17 C14         5.2541    0.9026    6.7193 C.ar      1 <0>        -0.1772
     18 C15         5.7636   -0.0222    7.6129 C.ar      1 <0>         0.1201
     19 N4          5.4957   -1.3077    7.4879 N.ar      1 <0>        -0.4842
     20 C16         4.7320   -1.7677    6.5181 C.ar      1 <0>         0.1342
     21 N5          0.7153   -3.7716   -1.5315 N.am      1 <0>        -0.6603
     22 C17         0.7404   -4.0356   -2.8529 C.2       1 <0>         0.5491
     23 O1          0.4912   -3.1555   -3.6535 O.2       1 <0>        -0.5015
     24 C18         1.0709   -5.3955   -3.3287 C.ar      1 <0>        -0.0938
     25 C19         1.3519   -6.4100   -2.4119 C.ar      1 <0>        -0.0834
     26 C20         1.6592   -7.6771   -2.8626 C.ar      1 <0>        -0.1009
     27 C21         1.6892   -7.9435   -4.2200 C.ar      1 <0>        -0.1382
     28 C22         1.4117   -6.9425   -5.1341 C.ar      1 <0>        -0.0966
     29 C23         1.0978   -5.6724   -4.6966 C.ar      1 <0>        -0.0538
     30 C24         2.0262   -9.3299   -4.7050 C.3       1 <0>         0.0425
     31 N6          0.7933  -10.1196   -4.8258 N.4       1 <0>        -0.3856
     32 C25         0.1989  -10.3052   -3.4955 C.3       1 <0>        -0.0078
     33 C26        -1.0954  -11.1117   -3.6230 C.3       1 <0>         0.0256
     34 N7         -0.7986  -12.4159   -4.2323 N.3       1 <0>        -0.5431
     35 C27        -0.1799  -12.2456   -5.5546 C.3       1 <0>         0.0239
     36 C28         1.1068  -11.4297   -5.4112 C.3       1 <0>        -0.0024
     37 C29        -2.0090  -13.2436   -4.3201 C.3       1 <0>         0.0192
     38 H1          0.5251    2.2130   -0.2290 H         1 <0>         0.0738
     39 H2         -1.1901    1.8307    0.0540 H         1 <0>         0.0752
     40 H3          0.0021    1.5877    1.3533 H         1 <0>         0.0636
     41 H4         -1.3262    0.2836   -1.8111 H         1 <0>         0.1330
     42 H5         -0.9481   -2.0158   -2.5982 H         1 <0>         0.1345
     43 H6          1.9030   -2.6209    0.5302 H         1 <0>         0.1487
     44 H7          1.8658    0.7534    1.6418 H         1 <0>         0.4265
     45 H8          1.8844   -4.2483    3.3325 H         1 <0>         0.1737
     46 H9          3.3172   -3.4566    5.1985 H         1 <0>         0.1513
     47 H10         4.0401    1.1680    4.9670 H         1 <0>         0.1465
     48 H11         5.4807    1.9525    6.8318 H         1 <0>         0.1439
     49 H12         6.3909    0.3135    8.4254 H         1 <0>         0.1636
     50 H13         4.5316   -2.8268    6.4514 H         1 <0>         0.1618
     51 H14         0.8453   -4.4884   -0.8911 H         1 <0>         0.4091
     52 H15         1.3291   -6.2032   -1.3521 H         1 <0>         0.1399
     53 H16         1.8771   -8.4627   -2.1544 H         1 <0>         0.1405
     54 H17         1.4372   -7.1570   -6.1922 H         1 <0>         0.1409
     55 H18         0.8770   -4.8931   -5.4110 H         1 <0>         0.1513
     56 H19         2.5135   -9.2661   -5.6779 H         1 <0>         0.1411
     57 H20         2.6973   -9.8107   -3.9933 H         1 <0>         0.1402
     58 H21         0.8998  -10.8418   -2.8560 H         1 <0>         0.1385
     59 H22        -0.0212   -9.3320   -3.0568 H         1 <0>         0.1352
     60 H23        -1.5289  -11.2624   -2.6343 H         1 <0>         0.1235
     61 H24        -1.8016  -10.5690   -4.2513 H         1 <0>         0.0601
     62 H25         0.0544  -13.2235   -5.9751 H         1 <0>         0.1247
     63 H26        -0.8711  -11.7216   -6.2147 H         1 <0>         0.0606
     64 H27         1.5598  -11.2902   -6.3927 H         1 <0>         0.1372
     65 H28         1.8030  -11.9606   -4.7619 H         1 <0>         0.1392
     66 H29        -2.7542  -12.7340   -4.9308 H         1 <0>         0.0396
     67 H30        -1.7610  -14.2028   -4.7745 H         1 <0>         0.0842
     68 H31        -2.4099  -13.4082   -3.3199 H         1 <0>         0.0844
     69 H32         0.1396   -9.6332   -5.4209 H         1 <0>         0.4206
@<TRIPOS>BOND
     1    1    2 1
     2    1   38 1
     3    1   39 1
     4    1   40 1
     5    2    7 ar
     6    2    3 ar
     7    3    4 ar
     8    3   41 1
     9    4    5 ar
    10    4   42 1
    11    5    6 ar
    12    5   21 1
    13    6    7 ar
    14    6   43 1
    15    7    8 1
    16    8    9 1
    17    8   44 1
    18    9   14 ar
    19    9   10 ar
    20   10   11 ar
    21   11   12 ar
    22   11   45 1
    23   12   13 ar
    24   12   46 1
    25   13   14 ar
    26   13   15 1
    27   15   20 ar
    28   15   16 ar
    29   16   17 ar
    30   16   47 1
    31   17   18 ar
    32   17   48 1
    33   18   19 ar
    34   18   49 1
    35   19   20 ar
    36   20   50 1
    37   21   22 am
    38   21   51 1
    39   22   23 2
    40   22   24 1
    41   24   29 ar
    42   24   25 ar
    43   25   26 ar
    44   25   52 1
    45   26   27 ar
    46   26   53 1
    47   27   28 ar
    48   27   30 1
    49   28   29 ar
    50   28   54 1
    51   29   55 1
    52   30   31 1
    53   30   56 1
    54   30   57 1
    55   31   36 1
    56   31   32 1
    57   31   69 1
    58   32   33 1
    59   32   58 1
    60   32   59 1
    61   33   34 1
    62   33   60 1
    63   33   61 1
    64   34   35 1
    65   34   37 1
    66   35   36 1
    67   35   62 1
    68   35   63 1
    69   36   64 1
    70   36   65 1
    71   37   66 1
    72   37   67 1
    73   37   68 1
@<TRIPOS>MOLECULE
CHEMBL558752
   53    57     0     0     0
SMALL
USER_CHARGES

@<TRIPOS>ATOM
      1 C1          0.0890    1.3306    0.4873 C.3       1 <0>         0.0749
      2 N1          0.4081   -0.0534    0.1284 N.pl3     1 <0>        -0.5085
      3 C2          0.3528   -0.6077   -1.1416 C.ar      1 <0>         0.0507
      4 C3          0.0137   -0.1123   -2.3916 C.ar      1 <0>        -0.0838
      5 C4          0.0591   -0.9388   -3.4947 C.ar      1 <0>        -0.1077
      6 C5          0.4436   -2.2696   -3.3617 C.ar      1 <0>         0.0751
      7 C6          0.7843   -2.7778   -2.1231 C.ar      1 <0>        -0.0835
      8 C7          0.7420   -1.9496   -0.9988 C.ar      1 <0>         0.0911
      9 N2          1.0108   -2.1503    0.3180 N.2       1 <0>        -0.5208
     10 C8          0.8212   -1.0367    0.9810 C.2       1 <0>         0.5369
     11 N3          1.0073   -0.8814    2.3399 N.pl3     1 <0>        -0.6412
     12 C9          1.5328   -1.9319    3.0980 C.ar      1 <0>         0.2053
     13 C10         2.3998   -2.8463    2.5135 C.ar      1 <0>        -0.1275
     14 C11         2.9176   -3.8826    3.2654 C.ar      1 <0>        -0.0424
     15 C12         2.5735   -4.0107    4.5987 C.ar      1 <0>        -0.2053
     16 C13         1.7106   -3.1021    5.1837 C.ar      1 <0>        -0.0432
     17 C14         1.1938   -2.0602    4.4389 C.ar      1 <0>        -0.1549
     18 C15         3.1396   -5.1433    5.4158 C.3       1 <0>         0.5100
     19 F1          4.3412   -4.7372    6.0062 F         1 <0>        -0.1771
     20 F2          2.2267   -5.5000    6.4140 F         1 <0>        -0.1778
     21 F3          3.3767   -6.2442    4.5857 F         1 <0>        -0.1766
     22 O1          0.4838   -3.0743   -4.4569 O.3       1 <0>        -0.2390
     23 C16        -0.5198   -3.9726   -4.6248 C.ar      1 <0>         0.1693
     24 C17        -1.5519   -4.0724   -3.6928 C.ar      1 <0>        -0.2330
     25 C18        -2.5577   -4.9965   -3.8940 C.ar      1 <0>         0.1462
     26 N4         -2.5549   -5.7828   -4.9518 N.ar      1 <0>        -0.5008
     27 C19        -1.5918   -5.7224   -5.8653 C.ar      1 <0>         0.2185
     28 C20        -0.5464   -4.8114   -5.7333 C.ar      1 <0>        -0.1453
     29 C21        -1.6332   -6.6264   -7.0353 C.2       1 <0>         0.2951
     30 N5         -2.5993   -7.5546   -7.2938 N.pl3     1 <0>        -0.5196
     31 H1         -3.3797   -7.7419   -6.7491 H         1 <0>         0.4364
     32 C22        -2.2593   -8.1700   -8.4662 C.2       1 <0>        -0.1211
     33 C23        -1.1072   -7.6076   -8.8883 C.2       1 <0>         0.0664
     34 N6         -0.7487   -6.6689   -8.0066 N.2       1 <0>        -0.4582
     35 C24        -3.0256   -9.2688   -9.1565 C.3       1 <0>         0.5516
     36 F4         -3.9502   -8.7065  -10.0431 F         1 <0>        -0.1675
     37 F5         -2.1361  -10.0835   -9.8651 F         1 <0>        -0.1592
     38 F6         -3.7018  -10.0363   -8.2021 F         1 <0>        -0.1759
     39 H2          0.9883    1.9420    0.4122 H         1 <0>         0.0804
     40 H3         -0.6705    1.7164   -0.1926 H         1 <0>         0.0932
     41 H4         -0.2881    1.3632    1.5095 H         1 <0>         0.0841
     42 H5         -0.2858    0.9195   -2.5011 H         1 <0>         0.1337
     43 H6         -0.2058   -0.5511   -4.4673 H         1 <0>         0.1432
     44 H7          1.0819   -3.8113   -2.0243 H         1 <0>         0.1405
     45 H8          0.7733   -0.0434    2.7688 H         1 <0>         0.4223
     46 H9          2.6684   -2.7473    1.4722 H         1 <0>         0.1551
     47 H10         3.5917   -4.5939    2.8116 H         1 <0>         0.1402
     48 H11         1.4439   -3.2049    6.2251 H         1 <0>         0.1410
     49 H12         0.5234   -1.3483    4.8975 H         1 <0>         0.1374
     50 H13        -1.5643   -3.4335   -2.8221 H         1 <0>         0.1469
     51 H14        -3.3584   -5.0766   -3.1737 H         1 <0>         0.1687
     52 H15         0.2337   -4.7602   -6.4784 H         1 <0>         0.1618
     53 H16        -0.5687   -7.8687   -9.7873 H         1 <0>         0.1936
@<TRIPOS>BOND
     1    1    2 1
     2    1   39 1
     3    1   40 1
     4    1   41 1
     5    2   10 1
     6    2    3 1
     7    3    8 ar
     8    3    4 ar
     9    4    5 ar
    10    4   42 1
    11    5    6 ar
    12    5   43 1
    13    6    7 ar
    14    6   22 1
    15    7    8 ar
    16    7   44 1
    17    8    9 1
    18    9   10 2
    19   10   11 1
    20   11   12 1
    21   11   45 1
    22   12   17 ar
    23   12   13 ar
    24   13   14 ar
    25   13   46 1
    26   14   15 ar
    27   14   47 1
    28   15   16 ar
    29   15   18 1
    30   16   17 ar
    31   16   48 1
    32   17   49 1
    33   18   19 1
    34   18   20 1
    35   18   21 1
    36   22   23 1
    37   23   28 ar
    38   23   24 ar
    39   24   25 ar
    40   24   50 1
    41   25   26 ar
    42   25   51 1
    43   26   27 ar
    44   27   28 ar
    45   27   29 1
    46   28   52 1
    47   29   34 2
    48   29   30 1
    49   30   31 1
    50   30   32 1
    51   32   33 2
    52   32   35 1
    53   33   34 1
    54   33   53 1
    55   35   36 1
    56   35   37 1
    57   35   38 1
@<TRIPOS>MOLECULE
CHEMBL558752__1
   53    57     0     0     0
SMALL
USER_CHARGES

@<TRIPOS>ATOM
      1 C1          0.0889    1.3304    0.4875 C.3       1 <0>         0.0749
      2 N1          0.4081   -0.0537    0.1285 N.pl3     1 <0>        -0.5086
      3 C2          0.3527   -0.6079   -1.1416 C.ar      1 <0>         0.0506
      4 C3          0.0140   -0.1123   -2.3916 C.ar      1 <0>        -0.0839
      5 C4          0.0596   -0.9387   -3.4948 C.ar      1 <0>        -0.1078
      6 C5          0.4437   -2.2696   -3.3617 C.ar      1 <0>         0.0757
      7 C6          0.7841   -2.7780   -2.1232 C.ar      1 <0>        -0.0835
      8 C7          0.7419   -1.9497   -0.9988 C.ar      1 <0>         0.0911
      9 N2          1.0107   -2.1505    0.3179 N.2       1 <0>        -0.5208
     10 C8          0.8211   -1.0370    0.9810 C.2       1 <0>         0.5367
     11 N3          1.0071   -0.8817    2.3399 N.pl3     1 <0>        -0.6412
     12 C9          1.5327   -1.9323    3.0980 C.ar      1 <0>         0.2054
     13 C10         2.3996   -2.8467    2.5135 C.ar      1 <0>        -0.1275
     14 C11         2.9174   -3.8830    3.2654 C.ar      1 <0>        -0.0424
     15 C12         2.5732   -4.0112    4.5986 C.ar      1 <0>        -0.2054
     16 C13         1.7104   -3.1025    5.1836 C.ar      1 <0>        -0.0433
     17 C14         1.1936   -2.0606    4.4389 C.ar      1 <0>        -0.1550
     18 C15         3.1394   -5.1438    5.4157 C.3       1 <0>         0.5100
     19 F1          4.3409   -4.7378    6.0061 F         1 <0>        -0.1770
     20 F2          2.2264   -5.5006    6.4139 F         1 <0>        -0.1779
     21 F3          3.3764   -6.2447    4.5855 F         1 <0>        -0.1766
     22 O1          0.4838   -3.0743   -4.4569 O.3       1 <0>        -0.2393
     23 C16        -0.5201   -3.9723   -4.6250 C.ar      1 <0>         0.1705
     24 C17        -1.5524   -4.0718   -3.6931 C.ar      1 <0>        -0.2358
     25 C18        -2.5584   -4.9956   -3.8944 C.ar      1 <0>         0.1462
     26 N4         -2.5556   -5.7821   -4.9520 N.ar      1 <0>        -0.5024
     27 C19        -1.5923   -5.7220   -5.8654 C.ar      1 <0>         0.2250
     28 C20        -0.5469   -4.8111   -5.7335 C.ar      1 <0>        -0.1498
     29 C21        -1.6337   -6.6263   -7.0352 C.2       1 <0>         0.2675
     30 N5         -0.7486   -6.6697   -8.0059 N.2       1 <0>        -0.4231
     31 H1         -3.3697   -7.7554   -6.7387 H         1 <0>         0.4388
     32 C22        -1.1086   -7.6064   -8.8890 C.2       1 <0>        -0.0925
     33 C23        -2.2574   -8.1732   -8.4636 C.2       1 <0>         0.0426
     34 N6         -2.5940   -7.5620   -7.2880 N.pl3     1 <0>        -0.5345
     35 C24        -0.3597   -7.9678  -10.1459 C.3       1 <0>         0.5560
     36 F4          0.8402   -7.2503  -10.1963 F         1 <0>        -0.1637
     37 F5         -0.0835   -9.3392  -10.1461 F         1 <0>        -0.1724
     38 F6         -1.1408   -7.6492  -11.2620 F         1 <0>        -0.1726
     39 H2          0.9882    1.9418    0.4124 H         1 <0>         0.0803
     40 H3         -0.6706    1.7162   -0.1925 H         1 <0>         0.0932
     41 H4         -0.2882    1.3629    1.5096 H         1 <0>         0.0840
     42 H5         -0.2856    0.9195   -2.5011 H         1 <0>         0.1336
     43 H6         -0.2047   -0.5508   -4.4675 H         1 <0>         0.1432
     44 H7          1.0813   -3.8116   -2.0244 H         1 <0>         0.1404
     45 H8          0.7732   -0.0438    2.7688 H         1 <0>         0.4222
     46 H9          2.6683   -2.7476    1.4722 H         1 <0>         0.1551
     47 H10         3.5915   -4.5943    2.8115 H         1 <0>         0.1402
     48 H11         1.4436   -3.2055    6.2251 H         1 <0>         0.1410
     49 H12         0.5233   -1.3487    4.8975 H         1 <0>         0.1373
     50 H13        -1.5646   -3.4329   -2.8224 H         1 <0>         0.1462
     51 H14        -3.3595   -5.0751   -3.1745 H         1 <0>         0.1681
     52 H15         0.2333   -4.7601   -6.4786 H         1 <0>         0.1604
     53 H16        -2.8052   -8.9625   -8.9568 H         1 <0>         0.2004
@<TRIPOS>BOND
     1    1    2 1
     2    1   39 1
     3    1   40 1
     4    1   41 1
     5    2   10 1
     6    2    3 1
     7    3    8 ar
     8    3    4 ar
     9    4    5 ar
    10    4   42 1
    11    5    6 ar
    12    5   43 1
    13    6    7 ar
    14    6   22 1
    15    7    8 ar
    16    7   44 1
    17    8    9 1
    18    9   10 2
    19   10   11 1
    20   11   12 1
    21   11   45 1
    22   12   17 ar
    23   12   13 ar
    24   13   14 ar
    25   13   46 1
    26   14   15 ar
    27   14   47 1
    28   15   16 ar
    29   15   18 1
    30   16   17 ar
    31   16   48 1
    32   17   49 1
    33   18   19 1
    34   18   20 1
    35   18   21 1
    36   22   23 1
    37   23   28 ar
    38   23   24 ar
    39   24   25 ar
    40   24   50 1
    41   25   26 ar
    42   25   51 1
    43   26   27 ar
    44   27   28 ar
    45   27   29 1
    46   28   52 1
    47   29   30 2
    48   29   34 1
    49   30   32 1
    50   31   34 1
    51   32   35 1
    52   32   33 2
    53   33   53 1
    54   33   34 1
    55   35   36 1
    56   35   37 1
    57   35   38 1
@<TRIPOS>MOLECULE
CHEMBL249137
   52    56     0     0     0
SMALL
USER_CHARGES

@<TRIPOS>ATOM
      1 C1          4.7611    1.7194   -3.2638 C.ar      1 <0>        -0.1695
      2 C2          4.4907    2.3046   -2.0403 C.ar      1 <0>        -0.0752
      3 C3          4.1118    1.5220   -0.9674 C.ar      1 <0>        -0.1789
      4 C4          4.0021    0.1454   -1.1184 C.ar      1 <0>         0.2277
      5 C5          4.2741   -0.4392   -2.3489 C.ar      1 <0>        -0.1832
      6 C6          4.6529    0.3493   -3.4175 C.ar      1 <0>        -0.0754
      7 N1          3.6195   -0.6496   -0.0347 N.pl3     1 <0>        -0.6926
      8 C7          3.6370   -2.0231   -0.1475 C.ar      1 <0>         0.2882
      9 C8          4.8046   -2.7665    0.1504 C.ar      1 <0>        -0.1143
     10 C9          5.9804   -2.1268    0.5700 C.ar      1 <0>        -0.0713
     11 C10         7.0904   -2.8609    0.8512 C.ar      1 <0>        -0.1064
     12 C11         7.0741   -4.2584    0.7262 C.ar      1 <0>        -0.0164
     13 C12         5.9272   -4.9152    0.3138 C.ar      1 <0>        -0.0864
     14 C13         4.7727   -4.1756    0.0197 C.ar      1 <0>         0.1535
     15 N2          3.6505   -4.7921   -0.3807 N.ar      1 <0>        -0.4704
     16 C14         2.5581   -4.1301   -0.6622 C.ar      1 <0>         0.1686
     17 C15         2.4967   -2.7312   -0.5556 C.ar      1 <0>        -0.2111
     18 C16         1.2506   -2.0149   -0.8740 C.2       1 <0>         0.5666
     19 O1          1.2310   -0.7987   -0.8733 O.2       1 <0>        -0.5156
     20 N3          0.1314   -2.7067   -1.1663 N.am      1 <0>        -0.8507
     21 C17         8.2954   -5.0382    1.0380 C.ar      1 <0>        -0.0206
     22 C18         8.2863   -6.4280    0.9099 C.ar      1 <0>        -0.1170
     23 C19         9.4149   -7.1514    1.1983 C.ar      1 <0>        -0.0571
     24 C20        10.5767   -6.4950    1.6209 C.ar      1 <0>        -0.1581
     25 C21        10.5837   -5.1010    1.7483 C.ar      1 <0>        -0.0680
     26 C22         9.4544   -4.3811    1.4538 C.ar      1 <0>        -0.1182
     27 C23        11.7880   -7.2687    1.9312 C.2       1 <0>         0.4238
     28 O2         11.7809   -8.4764    1.8209 O.2       1 <0>        -0.4517
     29 C24        13.0382   -6.5609    2.3861 C.3       1 <0>        -0.2235
     30 C25        13.8727   -7.2328    3.4783 C.3       1 <0>        -0.1473
     31 C26        14.3815   -7.2042    2.0357 C.3       1 <0>        -0.1485
     32 H1          5.0532    2.3342   -4.1023 H         1 <0>         0.1194
     33 H2          4.5762    3.3749   -1.9237 H         1 <0>         0.1229
     34 H3          3.9015    1.9796   -0.0121 H         1 <0>         0.1215
     35 H4          4.1900   -1.5091   -2.4695 H         1 <0>         0.1100
     36 H5          4.8648   -0.1045   -4.3743 H         1 <0>         0.1199
     37 H6          3.3415   -0.2348    0.7969 H         1 <0>         0.4161
     38 H7          6.0044   -1.0517    0.6693 H         1 <0>         0.1374
     39 H8          7.9932   -2.3633    1.1735 H         1 <0>         0.1372
     40 H9          5.9217   -5.9911    0.2194 H         1 <0>         0.1465
     41 H10         1.6804   -4.6731   -0.9805 H         1 <0>         0.1651
     42 H11         0.1470   -3.6766   -1.1668 H         1 <0>         0.4000
     43 H12        -0.6896   -2.2347   -1.3760 H         1 <0>         0.4085
     44 H13         7.3897   -6.9341    0.5838 H         1 <0>         0.1360
     45 H14         9.4072   -8.2269    1.0997 H         1 <0>         0.1385
     46 H15        11.4789   -4.5926    2.0746 H         1 <0>         0.1373
     47 H16         9.4605   -3.3053    1.5480 H         1 <0>         0.1351
     48 H17        12.9873   -5.4721    2.3894 H         1 <0>         0.1267
     49 H18        14.3709   -6.5861    4.2006 H         1 <0>         0.1068
     50 H19        13.5175   -8.1869    3.8679 H         1 <0>         0.1031
     51 H20        14.3609   -8.1393    1.4761 H         1 <0>         0.1044
     52 H21        15.2143   -6.5386    1.8088 H         1 <0>         0.1064
@<TRIPOS>BOND
     1    1    6 ar
     2    1    2 ar
     3    1   32 1
     4    2    3 ar
     5    2   33 1
     6    3    4 ar
     7    3   34 1
     8    4    5 ar
     9    4    7 1
    10    5    6 ar
    11    5   35 1
    12    6   36 1
    13    7    8 1
    14    7   37 1
    15    8   17 ar
    16    8    9 ar
    17    9   14 ar
    18    9   10 ar
    19   10   11 ar
    20   10   38 1
    21   11   12 ar
    22   11   39 1
    23   12   13 ar
    24   12   21 1
    25   13   14 ar
    26   13   40 1
    27   14   15 ar
    28   15   16 ar
    29   16   17 ar
    30   16   41 1
    31   17   18 1
    32   18   19 2
    33   18   20 am
    34   20   42 1
    35   20   43 1
    36   21   26 ar
    37   21   22 ar
    38   22   23 ar
    39   22   44 1
    40   23   24 ar
    41   23   45 1
    42   24   25 ar
    43   24   27 1
    44   25   26 ar
    45   25   46 1
    46   26   47 1
    47   27   28 2
    48   27   29 1
    49   29   31 1
    50   29   30 1
    51   29   48 1
    52   30   31 1
    53   30   49 1
    54   30   50 1
    55   31   51 1
    56   31   52 1
@<TRIPOS>MOLECULE
CHEMBL249137__1
   53    57     0     0     0
SMALL
USER_CHARGES

@<TRIPOS>ATOM
      1 C1          4.7671    1.7228   -3.2556 C.ar      1 <0>        -0.1490
      2 C2          4.4964    2.3064   -2.0315 C.ar      1 <0>        -0.0706
      3 C3          4.1152    1.5225   -0.9603 C.ar      1 <0>        -0.1602
      4 C4          4.0035    0.1464   -1.1137 C.ar      1 <0>         0.2024
      5 C5          4.2758   -0.4365   -2.3449 C.ar      1 <0>        -0.1839
      6 C6          4.6570    0.3532   -3.4118 C.ar      1 <0>        -0.0745
      7 N1          3.6186   -0.6499   -0.0318 N.pl3     1 <0>        -0.7060
      8 C7          3.6365   -2.0232   -0.1460 C.ar      1 <0>         0.4044
      9 C8          4.8041   -2.7667    0.1518 C.ar      1 <0>        -0.1095
     10 C9          5.9796   -2.1271    0.5728 C.ar      1 <0>        -0.0321
     11 C10         7.0896   -2.8611    0.8539 C.ar      1 <0>        -0.0969
     12 C11         7.0737   -4.2585    0.7274 C.ar      1 <0>         0.0712
     13 C12         5.9273   -4.9152    0.3136 C.ar      1 <0>        -0.1519
     14 C13         4.7727   -4.1755    0.0195 C.ar      1 <0>         0.1638
     15 N2          3.6510   -4.7919   -0.3822 N.ar      1 <0>        -0.4619
     16 C14         2.5586   -4.1300   -0.6641 C.ar      1 <0>         0.2396
     17 C15         2.4967   -2.7312   -0.5556 C.ar      1 <0>        -0.2160
     18 C16         1.2506   -2.0149   -0.8740 C.2       1 <0>         0.5681
     19 O1          1.2310   -0.7987   -0.8733 O.2       1 <0>        -0.4844
     20 N3          0.1314   -2.7067   -1.1663 N.am      1 <0>        -0.8432
     21 C17         8.2950   -5.0383    1.0391 C.ar      1 <0>        -0.0653
     22 C18         8.2865   -6.4280    0.9095 C.ar      1 <0>        -0.0998
     23 C19         9.4150   -7.1514    1.1978 C.ar      1 <0>        -0.0631
     24 C20        10.5764   -6.4951    1.6219 C.ar      1 <0>        -0.1268
     25 C21        10.5829   -5.1012    1.7507 C.ar      1 <0>        -0.0702
     26 C22         9.4537   -4.3814    1.4564 C.ar      1 <0>        -0.0971
     27 C23        11.7877   -7.2688    1.9320 C.2       1 <0>         0.4185
     28 O2         11.7810   -8.4764    1.8205 O.2       1 <0>        -0.4398
     29 C24        13.0375   -6.5611    2.3885 C.3       1 <0>        -0.2282
     30 C25        13.8715   -7.2340    3.4805 C.3       1 <0>        -0.1449
     31 C26        14.3811   -7.2037    2.0382 C.3       1 <0>        -0.1458
     32 H1          5.0610    2.3386   -4.0928 H         1 <0>         0.1282
     33 H2          4.5834    3.3763   -1.9130 H         1 <0>         0.1323
     34 H3          3.9046    1.9789   -0.0044 H         1 <0>         0.1292
     35 H4          4.1903   -1.5062   -2.4674 H         1 <0>         0.1051
     36 H5          4.8692   -0.0993   -4.3692 H         1 <0>         0.1265
     37 H6          3.3387   -0.2360    0.7997 H         1 <0>         0.4320
     38 H7          6.0032   -1.0520    0.6733 H         1 <0>         0.1645
     39 H8          7.9920   -2.3637    1.1773 H         1 <0>         0.1610
     40 H9          5.9221   -5.9910    0.2180 H         1 <0>         0.1645
     41 H10         1.6815   -4.6728   -0.9839 H         1 <0>         0.2129
     42 H11         0.1470   -3.6766   -1.1668 H         1 <0>         0.3978
     43 H12        -0.6896   -2.2347   -1.3760 H         1 <0>         0.4227
     44 H13         7.3902   -6.9340    0.5823 H         1 <0>         0.1346
     45 H14         9.4077   -8.2268    1.0981 H         1 <0>         0.1454
     46 H15        11.4778   -4.5929    2.0781 H         1 <0>         0.1464
     47 H16         9.4594   -3.3056    1.5517 H         1 <0>         0.1403
     48 H17        12.9862   -5.4723    2.3930 H         1 <0>         0.1273
     49 H18        14.3690   -6.5880    4.2038 H         1 <0>         0.1097
     50 H19        13.5162   -8.1886    3.8688 H         1 <0>         0.1046
     51 H20        14.3611   -8.1382    1.4776 H         1 <0>         0.1060
     52 H21        15.2139   -6.5376    1.8126 H         1 <0>         0.1095
     53 H22         3.6500   -5.7583   -0.4664 H         1 <0>         0.4526
@<TRIPOS>BOND
     1    1    6 ar
     2    1    2 ar
     3    1   32 1
     4    2    3 ar
     5    2   33 1
     6    3    4 ar
     7    3   34 1
     8    4    5 ar
     9    4    7 1
    10    5    6 ar
    11    5   35 1
    12    6   36 1
    13    7    8 1
    14    7   37 1
    15    8   17 ar
    16    8    9 ar
    17    9   14 ar
    18    9   10 ar
    19   10   11 ar
    20   10   38 1
    21   11   12 ar
    22   11   39 1
    23   12   13 ar
    24   12   21 1
    25   13   14 ar
    26   13   40 1
    27   14   15 ar
    28   15   16 ar
    29   15   53 1
    30   16   17 ar
    31   16   41 1
    32   17   18 1
    33   18   19 2
    34   18   20 am
    35   20   42 1
    36   20   43 1
    37   21   26 ar
    38   21   22 ar
    39   22   23 ar
    40   22   44 1
    41   23   24 ar
    42   23   45 1
    43   24   25 ar
    44   24   27 1
    45   25   26 ar
    46   25   46 1
    47   26   47 1
    48   27   28 2
    49   27   29 1
    50   29   31 1
    51   29   30 1
    52   29   48 1
    53   30   31 1
    54   30   49 1
    55   30   50 1
    56   31   51 1
    57   31   52 1
@<TRIPOS>MOLECULE
CHEMBL249138
   58    62     0     0     0
SMALL
USER_CHARGES

@<TRIPOS>ATOM
      1 C1          4.7611    1.7194   -3.2638 C.ar      1 <0>        -0.1695
      2 C2          4.4907    2.3046   -2.0403 C.ar      1 <0>        -0.0751
      3 C3          4.1118    1.5220   -0.9674 C.ar      1 <0>        -0.1789
      4 C4          4.0021    0.1454   -1.1184 C.ar      1 <0>         0.2277
      5 C5          4.2741   -0.4392   -2.3489 C.ar      1 <0>        -0.1832
      6 C6          4.6529    0.3493   -3.4175 C.ar      1 <0>        -0.0754
      7 N1          3.6195   -0.6496   -0.0347 N.pl3     1 <0>        -0.6926
      8 C7          3.6370   -2.0231   -0.1475 C.ar      1 <0>         0.2882
      9 C8          4.8046   -2.7665    0.1504 C.ar      1 <0>        -0.1143
     10 C9          5.9804   -2.1268    0.5700 C.ar      1 <0>        -0.0713
     11 C10         7.0904   -2.8609    0.8512 C.ar      1 <0>        -0.1064
     12 C11         7.0741   -4.2584    0.7262 C.ar      1 <0>        -0.0163
     13 C12         5.9272   -4.9152    0.3138 C.ar      1 <0>        -0.0865
     14 C13         4.7727   -4.1756    0.0197 C.ar      1 <0>         0.1536
     15 N2          3.6505   -4.7921   -0.3807 N.ar      1 <0>        -0.4705
     16 C14         2.5581   -4.1301   -0.6622 C.ar      1 <0>         0.1686
     17 C15         2.4967   -2.7312   -0.5556 C.ar      1 <0>        -0.2111
     18 C16         1.2506   -2.0149   -0.8740 C.2       1 <0>         0.5666
     19 O1          1.2310   -0.7987   -0.8733 O.2       1 <0>        -0.5155
     20 N3          0.1314   -2.7067   -1.1663 N.am      1 <0>        -0.8507
     21 C17         8.2954   -5.0382    1.0380 C.ar      1 <0>        -0.0208
     22 C18         8.2863   -6.4280    0.9099 C.ar      1 <0>        -0.1171
     23 C19         9.4149   -7.1514    1.1983 C.ar      1 <0>        -0.0576
     24 C20        10.5767   -6.4950    1.6209 C.ar      1 <0>        -0.1633
     25 C21        10.5837   -5.1010    1.7483 C.ar      1 <0>        -0.0689
     26 C22         9.4544   -4.3811    1.4538 C.ar      1 <0>        -0.1178
     27 C23        11.7880   -7.2687    1.9312 C.2       1 <0>         0.4013
     28 O2         11.7809   -8.4764    1.8209 O.2       1 <0>        -0.4455
     29 C24        13.0382   -6.5609    2.3861 C.3       1 <0>        -0.1387
     30 C25        13.8821   -6.1414    1.1648 C.3       1 <0>        -0.1088
     31 C26        15.3463   -6.3507    1.6247 C.3       1 <0>        -0.1242
     32 C27        15.2568   -7.6445    2.4716 C.3       1 <0>        -0.1247
     33 C28        13.9123   -7.5166    3.2170 C.3       1 <0>        -0.1200
     34 H1          5.0532    2.3342   -4.1023 H         1 <0>         0.1194
     35 H2          4.5762    3.3749   -1.9237 H         1 <0>         0.1229
     36 H3          3.9015    1.9796   -0.0121 H         1 <0>         0.1215
     37 H4          4.1900   -1.5091   -2.4695 H         1 <0>         0.1100
     38 H5          4.8648   -0.1045   -4.3743 H         1 <0>         0.1199
     39 H6          3.3415   -0.2348    0.7969 H         1 <0>         0.4161
     40 H7          6.0044   -1.0517    0.6693 H         1 <0>         0.1374
     41 H8          7.9932   -2.3633    1.1735 H         1 <0>         0.1372
     42 H9          5.9217   -5.9911    0.2194 H         1 <0>         0.1463
     43 H10         1.6804   -4.6731   -0.9805 H         1 <0>         0.1651
     44 H11         0.1470   -3.6766   -1.1668 H         1 <0>         0.4000
     45 H12        -0.6896   -2.2347   -1.3760 H         1 <0>         0.4085
     46 H13         7.3897   -6.9341    0.5838 H         1 <0>         0.1355
     47 H14         9.4072   -8.2269    1.0997 H         1 <0>         0.1380
     48 H15        11.4789   -4.5926    2.0746 H         1 <0>         0.1368
     49 H16         9.4605   -3.3053    1.5480 H         1 <0>         0.1349
     50 H17        12.7761   -5.6843    2.9786 H         1 <0>         0.0989
     51 H18        13.6566   -6.7773    0.3087 H         1 <0>         0.0695
     52 H19        13.7051   -5.0940    0.9203 H         1 <0>         0.0749
     53 H20        16.0037   -6.4949    0.7674 H         1 <0>         0.0706
     54 H21        15.6832   -5.5124    2.2346 H         1 <0>         0.0709
     55 H22        15.2533   -8.5231    1.8265 H         1 <0>         0.0678
     56 H23        16.0830   -7.6941    3.1808 H         1 <0>         0.0683
     57 H24        14.0751   -7.1034    4.2124 H         1 <0>         0.0694
     58 H25        13.4322   -8.4923    3.2912 H         1 <0>         0.0790
@<TRIPOS>BOND
     1    1    6 ar
     2    1    2 ar
     3    1   34 1
     4    2    3 ar
     5    2   35 1
     6    3    4 ar
     7    3   36 1
     8    4    5 ar
     9    4    7 1
    10    5    6 ar
    11    5   37 1
    12    6   38 1
    13    7    8 1
    14    7   39 1
    15    8   17 ar
    16    8    9 ar
    17    9   14 ar
    18    9   10 ar
    19   10   11 ar
    20   10   40 1
    21   11   12 ar
    22   11   41 1
    23   12   13 ar
    24   12   21 1
    25   13   14 ar
    26   13   42 1
    27   14   15 ar
    28   15   16 ar
    29   16   17 ar
    30   16   43 1
    31   17   18 1
    32   18   19 2
    33   18   20 am
    34   20   44 1
    35   20   45 1
    36   21   26 ar
    37   21   22 ar
    38   22   23 ar
    39   22   46 1
    40   23   24 ar
    41   23   47 1
    42   24   25 ar
    43   24   27 1
    44   25   26 ar
    45   25   48 1
    46   26   49 1
    47   27   28 2
    48   27   29 1
    49   29   33 1
    50   29   30 1
    51   29   50 1
    52   30   31 1
    53   30   51 1
    54   30   52 1
    55   31   32 1
    56   31   53 1
    57   31   54 1
    58   32   33 1
    59   32   55 1
    60   32   56 1
    61   33   57 1
    62   33   58 1
@<TRIPOS>MOLECULE
CHEMBL249138__1
   59    63     0     0     0
SMALL
USER_CHARGES

@<TRIPOS>ATOM
      1 C1          4.7671    1.7228   -3.2556 C.ar      1 <0>        -0.1490
      2 C2          4.4964    2.3064   -2.0315 C.ar      1 <0>        -0.0706
      3 C3          4.1152    1.5225   -0.9603 C.ar      1 <0>        -0.1602
      4 C4          4.0035    0.1464   -1.1137 C.ar      1 <0>         0.2024
      5 C5          4.2758   -0.4365   -2.3449 C.ar      1 <0>        -0.1839
      6 C6          4.6570    0.3532   -3.4118 C.ar      1 <0>        -0.0745
      7 N1          3.6186   -0.6499   -0.0318 N.pl3     1 <0>        -0.7060
      8 C7          3.6365   -2.0232   -0.1460 C.ar      1 <0>         0.4045
      9 C8          4.8041   -2.7667    0.1518 C.ar      1 <0>        -0.1095
     10 C9          5.9796   -2.1271    0.5728 C.ar      1 <0>        -0.0321
     11 C10         7.0896   -2.8611    0.8539 C.ar      1 <0>        -0.0969
     12 C11         7.0737   -4.2585    0.7274 C.ar      1 <0>         0.0712
     13 C12         5.9273   -4.9152    0.3136 C.ar      1 <0>        -0.1519
     14 C13         4.7727   -4.1755    0.0195 C.ar      1 <0>         0.1637
     15 N2          3.6510   -4.7919   -0.3822 N.ar      1 <0>        -0.4619
     16 C14         2.5586   -4.1300   -0.6641 C.ar      1 <0>         0.2397
     17 C15         2.4967   -2.7312   -0.5556 C.ar      1 <0>        -0.2160
     18 C16         1.2506   -2.0149   -0.8740 C.2       1 <0>         0.5681
     19 O1          1.2310   -0.7987   -0.8733 O.2       1 <0>        -0.4843
     20 N3          0.1314   -2.7067   -1.1663 N.am      1 <0>        -0.8432
     21 C17         8.2950   -5.0383    1.0391 C.ar      1 <0>        -0.0654
     22 C18         8.2865   -6.4280    0.9095 C.ar      1 <0>        -0.0998
     23 C19         9.4150   -7.1514    1.1978 C.ar      1 <0>        -0.0635
     24 C20        10.5764   -6.4951    1.6219 C.ar      1 <0>        -0.1323
     25 C21        10.5829   -5.1012    1.7507 C.ar      1 <0>        -0.0711
     26 C22         9.4537   -4.3814    1.4564 C.ar      1 <0>        -0.0967
     27 C23        11.7877   -7.2688    1.9320 C.2       1 <0>         0.3957
     28 O2         11.7810   -8.4764    1.8205 O.2       1 <0>        -0.4328
     29 C24        13.0375   -6.5611    2.3885 C.3       1 <0>        -0.1385
     30 C25        13.8820   -6.1401    1.1682 C.3       1 <0>        -0.1091
     31 C26        15.3459   -6.3495    1.6288 C.3       1 <0>        -0.1248
     32 C27        15.2563   -7.6442    2.4742 C.3       1 <0>        -0.1258
     33 C28        13.9113   -7.5175    3.2189 C.3       1 <0>        -0.1205
     34 H1          5.0610    2.3386   -4.0928 H         1 <0>         0.1282
     35 H2          4.5834    3.3763   -1.9130 H         1 <0>         0.1323
     36 H3          3.9046    1.9789   -0.0044 H         1 <0>         0.1292
     37 H4          4.1903   -1.5062   -2.4674 H         1 <0>         0.1051
     38 H5          4.8692   -0.0993   -4.3692 H         1 <0>         0.1265
     39 H6          3.3387   -0.2360    0.7997 H         1 <0>         0.4320
     40 H7          6.0032   -1.0520    0.6733 H         1 <0>         0.1645
     41 H8          7.9920   -2.3637    1.1773 H         1 <0>         0.1609
     42 H9          5.9221   -5.9910    0.2180 H         1 <0>         0.1644
     43 H10         1.6815   -4.6728   -0.9839 H         1 <0>         0.2128
     44 H11         0.1470   -3.6766   -1.1668 H         1 <0>         0.3978
     45 H12        -0.6896   -2.2347   -1.3760 H         1 <0>         0.4227
     46 H13         7.3902   -6.9340    0.5823 H         1 <0>         0.1341
     47 H14         9.4077   -8.2268    1.0981 H         1 <0>         0.1450
     48 H15        11.4778   -4.5929    2.0781 H         1 <0>         0.1459
     49 H16         9.4594   -3.3056    1.5517 H         1 <0>         0.1402
     50 H17        12.7748   -5.6853    2.9818 H         1 <0>         0.0999
     51 H18        13.6572   -6.7751    0.3112 H         1 <0>         0.0696
     52 H19        13.7048   -5.0925    0.9247 H         1 <0>         0.0750
     53 H20        16.0039   -6.4926    0.7717 H         1 <0>         0.0729
     54 H21        15.6822   -5.5118    2.2397 H         1 <0>         0.0726
     55 H22        15.2535   -8.5222    1.8282 H         1 <0>         0.0688
     56 H23        16.0821   -7.6944    3.1839 H         1 <0>         0.0712
     57 H24        14.0733   -7.1054    4.2149 H         1 <0>         0.0719
     58 H25        13.4314   -8.4935    3.2917 H         1 <0>         0.0793
     59 H26         3.6500   -5.7583   -0.4664 H         1 <0>         0.4526
@<TRIPOS>BOND
     1    1    6 ar
     2    1    2 ar
     3    1   34 1
     4    2    3 ar
     5    2   35 1
     6    3    4 ar
     7    3   36 1
     8    4    5 ar
     9    4    7 1
    10    5    6 ar
    11    5   37 1
    12    6   38 1
    13    7    8 1
    14    7   39 1
    15    8   17 ar
    16    8    9 ar
    17    9   14 ar
    18    9   10 ar
    19   10   11 ar
    20   10   40 1
    21   11   12 ar
    22   11   41 1
    23   12   13 ar
    24   12   21 1
    25   13   14 ar
    26   13   42 1
    27   14   15 ar
    28   15   16 ar
    29   15   59 1
    30   16   17 ar
    31   16   43 1
    32   17   18 1
    33   18   19 2
    34   18   20 am
    35   20   44 1
    36   20   45 1
    37   21   26 ar
    38   21   22 ar
    39   22   23 ar
    40   22   46 1
    41   23   24 ar
    42   23   47 1
    43   24   25 ar
    44   24   27 1
    45   25   26 ar
    46   25   48 1
    47   26   49 1
    48   27   28 2
    49   27   29 1
    50   29   33 1
    51   29   30 1
    52   29   50 1
    53   30   31 1
    54   30   51 1
    55   30   52 1
    56   31   32 1
    57   31   53 1
    58   31   54 1
    59   32   33 1
    60   32   55 1
    61   32   56 1
    62   33   57 1
    63   33   58 1
@<TRIPOS>MOLECULE
CHEMBL573577
   59    62     0     0     0
SMALL
USER_CHARGES

@<TRIPOS>ATOM
      1 C1         -0.4150    1.4143    0.0421 C.3       1 <0>        -0.0953
      2 C2         -0.1211   -0.0633    0.0078 C.2       1 <0>        -0.0505
      3 C3          0.0576   -0.8412   -1.1191 C.2       1 <0>        -0.0216
      4 N1          0.3054   -2.1349   -0.7093 N.pl3     1 <0>        -0.4947
      5 H1          0.4677   -2.8890   -1.2975 H         1 <0>         0.4238
      6 C4          0.2863   -2.1856    0.6331 C.2       1 <0>         0.1143
      7 C5          0.0303   -0.9171    1.1214 C.2       1 <0>        -0.2295
      8 C6         -0.0687   -0.5296    2.5403 C.2       1 <0>         0.5975
      9 O1         -1.1426   -0.5743    3.1093 O.2       1 <0>        -0.5341
     10 N2          1.0308   -0.1259    3.2070 N.am      1 <0>        -0.7173
     11 C7          0.9324    0.2591    4.6170 C.3       1 <0>         0.0869
     12 C8          2.3130    0.6733    5.1302 C.3       1 <0>         0.1023
     13 C9          2.2353    0.9555    6.6319 C.3       1 <0>         0.0237
     14 N3          3.5608    1.3532    7.1247 N.3       1 <0>        -0.5251
     15 C10         4.5132    0.2369    7.0341 C.3       1 <0>         0.0145
     16 C11         5.8923    0.7107    7.5004 C.3       1 <0>         0.0636
     17 O2          5.7889    1.2277    8.8298 O.3       1 <0>        -0.3856
     18 C12         4.8702    2.3167    8.9542 C.3       1 <0>         0.0634
     19 C13         3.4807    1.8591    8.5027 C.3       1 <0>         0.0168
     20 O3          2.7417    1.8520    4.4455 O.3       1 <0>        -0.5429
     21 C14         0.5128   -3.4191    1.4687 C.3       1 <0>        -0.0996
     22 C15        -0.0030   -0.3914   -2.4562 C.2       1 <0>         0.0881
     23 C16        -0.5015   -1.2202   -3.4414 C.2       1 <0>        -0.2047
     24 C17        -0.4951   -0.9862   -4.9027 C.ar      1 <0>        -0.0667
     25 C18        -0.0270    0.0538   -5.6996 C.ar      1 <0>        -0.1023
     26 C19        -0.1699   -0.0177   -7.0724 C.ar      1 <0>         0.0827
     27 C20        -0.7775   -1.1223   -7.6507 C.ar      1 <0>        -0.1181
     28 C21        -1.2444   -2.1579   -6.8672 C.ar      1 <0>        -0.1046
     29 C22        -1.1094   -2.1033   -5.4843 C.ar      1 <0>         0.1293
     30 N4         -1.4846   -2.9913   -4.4820 N.am      1 <0>        -0.6490
     31 C23        -1.1474   -2.5281   -3.2664 C.2       1 <0>         0.5576
     32 O4         -1.3452   -3.0925   -2.2052 O.2       1 <0>        -0.5096
     33 F1          0.2823    0.9891   -7.8515 F         1 <0>        -0.1345
     34 H2          0.5220    1.9706    0.0666 H         1 <0>         0.0766
     35 H3         -0.9799    1.6932   -0.8475 H         1 <0>         0.0700
     36 H4         -0.9997    1.6480    0.9318 H         1 <0>         0.0708
     37 H5          1.8874   -0.0902    2.7531 H         1 <0>         0.4063
     38 H6          0.2412    1.0960    4.7178 H         1 <0>         0.0735
     39 H7          0.5667   -0.5863    5.1998 H         1 <0>         0.0763
     40 H8          3.0248   -0.1319    4.9482 H         1 <0>         0.1043
     41 H9          1.5234    1.7607    6.8139 H         1 <0>         0.0847
     42 H10         1.9082    0.0564    7.1542 H         1 <0>         0.0486
     43 H11         4.1757   -0.5819    7.6695 H         1 <0>         0.0428
     44 H12         4.5759   -0.1052    6.0011 H         1 <0>         0.0882
     45 H13         6.5883   -0.1281    7.4892 H         1 <0>         0.0984
     46 H14         6.2533    1.4930    6.8327 H         1 <0>         0.0620
     47 H15         4.8269    2.6394    9.9944 H         1 <0>         0.0990
     48 H16         5.2015    3.1456    8.3287 H         1 <0>         0.0615
     49 H17         2.7897    2.7012    8.5416 H         1 <0>         0.0873
     50 H18         3.1267    1.0662    9.1615 H         1 <0>         0.0435
     51 H19         2.1541    2.6109    4.5632 H         1 <0>         0.3766
     52 H20         1.5751   -3.5164    1.6924 H         1 <0>         0.0822
     53 H21        -0.0483   -3.3355    2.3994 H         1 <0>         0.0869
     54 H22         0.1754   -4.2976    0.9186 H         1 <0>         0.0766
     55 H23         0.3406    0.6010   -2.7081 H         1 <0>         0.1572
     56 H24         0.4456    0.9132   -5.2475 H         1 <0>         0.1429
     57 H25        -0.8866   -1.1722   -8.7240 H         1 <0>         0.1457
     58 H26        -1.7162   -3.0126   -7.3291 H         1 <0>         0.1394
     59 H27        -1.9293   -3.8386   -4.6405 H         1 <0>         0.4199
@<TRIPOS>BOND
     1    1    2 1
     2    1   34 1
     3    1   35 1
     4    1   36 1
     5    2    7 1
     6    2    3 2
     7    3    4 1
     8    3   22 1
     9    4    5 1
    10    4    6 1
    11    6    7 2
    12    6   21 1
    13    7    8 1
    14    8    9 2
    15    8   10 am
    16   10   11 1
    17   10   37 1
    18   11   12 1
    19   11   38 1
    20   11   39 1
    21   12   13 1
    22   12   20 1
    23   12   40 1
    24   13   14 1
    25   13   41 1
    26   13   42 1
    27   14   19 1
    28   14   15 1
    29   15   16 1
    30   15   43 1
    31   15   44 1
    32   16   17 1
    33   16   45 1
    34   16   46 1
    35   17   18 1
    36   18   19 1
    37   18   47 1
    38   18   48 1
    39   19   49 1
    40   19   50 1
    41   20   51 1
    42   21   52 1
    43   21   53 1
    44   21   54 1
    45   22   23 2
    46   22   55 1
    47   23   31 1
    48   23   24 1
    49   24   29 ar
    50   24   25 ar
    51   25   26 ar
    52   25   56 1
    53   26   27 ar
    54   26   33 1
    55   27   28 ar
    56   27   57 1
    57   28   29 ar
    58   28   58 1
    59   29   30 1
    60   30   31 am
    61   30   59 1
    62   31   32 2
@<TRIPOS>MOLECULE
CHEMBL573577__1
   60    63     0     0     0
SMALL
USER_CHARGES

@<TRIPOS>ATOM
      1 C1         -0.4150    1.4143    0.0421 C.3       1 <0>        -0.0940
      2 C2         -0.1211   -0.0633    0.0078 C.2       1 <0>        -0.0571
      3 C3          0.0576   -0.8412   -1.1191 C.2       1 <0>        -0.0098
      4 N1          0.3054   -2.1349   -0.7093 N.pl3     1 <0>        -0.4925
      5 H1          0.4677   -2.8890   -1.2975 H         1 <0>         0.4259
      6 C4          0.2863   -2.1856    0.6331 C.2       1 <0>         0.1126
      7 C5          0.0303   -0.9171    1.1214 C.2       1 <0>        -0.2380
      8 C6         -0.0687   -0.5296    2.5403 C.2       1 <0>         0.6058
      9 O1         -1.1426   -0.5743    3.1093 O.2       1 <0>        -0.5238
     10 N2          1.0308   -0.1259    3.2070 N.am      1 <0>        -0.7252
     11 C7          0.9324    0.2591    4.6170 C.3       1 <0>         0.0914
     12 C8          2.3130    0.6733    5.1302 C.3       1 <0>         0.0721
     13 C9          2.2353    0.9555    6.6319 C.3       1 <0>        -0.0432
     14 N3          3.5608    1.3532    7.1247 N.4       1 <0>        -0.3805
     15 C10         4.4924    0.2248    6.9899 C.3       1 <0>        -0.0490
     16 C11         5.8727    0.6417    7.5037 C.3       1 <0>         0.0371
     17 O2          5.7600    1.0704    8.8636 O.3       1 <0>        -0.3561
     18 C12         4.8445    2.1534    9.0499 C.3       1 <0>         0.0358
     19 C13         3.4623    1.7394    8.5389 C.3       1 <0>        -0.0441
     20 O3          2.7417    1.8520    4.4455 O.3       1 <0>        -0.5500
     21 C14         0.5128   -3.4191    1.4687 C.3       1 <0>        -0.0996
     22 C15        -0.0030   -0.3914   -2.4562 C.2       1 <0>         0.0728
     23 C16        -0.5015   -1.2202   -3.4414 C.2       1 <0>        -0.1889
     24 C17        -0.4951   -0.9862   -4.9027 C.ar      1 <0>        -0.0737
     25 C18        -0.0270    0.0538   -5.6996 C.ar      1 <0>        -0.1000
     26 C19        -0.1699   -0.0177   -7.0724 C.ar      1 <0>         0.0843
     27 C20        -0.7775   -1.1223   -7.6507 C.ar      1 <0>        -0.1139
     28 C21        -1.2444   -2.1579   -6.8672 C.ar      1 <0>        -0.1028
     29 C22        -1.1094   -2.1033   -5.4843 C.ar      1 <0>         0.1304
     30 N4         -1.4846   -2.9913   -4.4820 N.am      1 <0>        -0.6474
     31 C23        -1.1474   -2.5281   -3.2664 C.2       1 <0>         0.5577
     32 O4         -1.3452   -3.0925   -2.2052 O.2       1 <0>        -0.5109
     33 F1          0.2823    0.9891   -7.8515 F         1 <0>        -0.1327
     34 H2          0.5220    1.9706    0.0666 H         1 <0>         0.0741
     35 H3         -0.9799    1.6932   -0.8475 H         1 <0>         0.0725
     36 H4         -0.9997    1.6480    0.9318 H         1 <0>         0.0683
     37 H5          1.8874   -0.0902    2.7531 H         1 <0>         0.4084
     38 H6          0.2412    1.0960    4.7178 H         1 <0>         0.0831
     39 H7          0.5667   -0.5863    5.1998 H         1 <0>         0.0875
     40 H8          3.0248   -0.1319    4.9482 H         1 <0>         0.1307
     41 H9          1.5234    1.7607    6.8139 H         1 <0>         0.1416
     42 H10         1.9082    0.0564    7.1542 H         1 <0>         0.1459
     43 H11         4.1270   -0.6200    7.5737 H         1 <0>         0.1402
     44 H12         4.5663   -0.0624    5.9410 H         1 <0>         0.1426
     45 H13         6.5545   -0.2067    7.4448 H         1 <0>         0.1427
     46 H14         6.2558    1.4604    6.8946 H         1 <0>         0.0826
     47 H15         4.7821    2.3991   10.1100 H         1 <0>         0.1432
     48 H16         5.1924    3.0239    8.4936 H         1 <0>         0.0819
     49 H17         2.7715    2.5765    8.6400 H         1 <0>         0.1434
     50 H18         3.0973    0.8939    9.1222 H         1 <0>         0.1401
     51 H19         2.1541    2.6109    4.5632 H         1 <0>         0.3940
     52 H20         1.5751   -3.5164    1.6924 H         1 <0>         0.0806
     53 H21        -0.0483   -3.3355    2.3994 H         1 <0>         0.0850
     54 H22         0.1754   -4.2976    0.9186 H         1 <0>         0.0793
     55 H23         0.3406    0.6010   -2.7081 H         1 <0>         0.1581
     56 H24         0.4456    0.9132   -5.2475 H         1 <0>         0.1429
     57 H25        -0.8866   -1.1722   -8.7240 H         1 <0>         0.1481
     58 H26        -1.7162   -3.0126   -7.3291 H         1 <0>         0.1415
     59 H27        -1.9293   -3.8386   -4.6405 H         1 <0>         0.4219
     60 H28         3.8996    2.1356    6.5850 H         1 <0>         0.4276
@<TRIPOS>BOND
     1    1    2 1
     2    1   34 1
     3    1   35 1
     4    1   36 1
     5    2    7 1
     6    2    3 2
     7    3    4 1
     8    3   22 1
     9    4    5 1
    10    4    6 1
    11    6    7 2
    12    6   21 1
    13    7    8 1
    14    8    9 2
    15    8   10 am
    16   10   11 1
    17   10   37 1
    18   11   12 1
    19   11   38 1
    20   11   39 1
    21   12   13 1
    22   12   20 1
    23   12   40 1
    24   13   14 1
    25   13   41 1
    26   13   42 1
    27   14   19 1
    28   14   15 1
    29   14   60 1
    30   15   16 1
    31   15   43 1
    32   15   44 1
    33   16   17 1
    34   16   45 1
    35   16   46 1
    36   17   18 1
    37   18   19 1
    38   18   47 1
    39   18   48 1
    40   19   49 1
    41   19   50 1
    42   20   51 1
    43   21   52 1
    44   21   53 1
    45   21   54 1
    46   22   23 2
    47   22   55 1
    48   23   31 1
    49   23   24 1
    50   24   29 ar
    51   24   25 ar
    52   25   26 ar
    53   25   56 1
    54   26   27 ar
    55   26   33 1
    56   27   28 ar
    57   27   57 1
    58   28   29 ar
    59   28   58 1
    60   29   30 1
    61   30   31 am
    62   30   59 1
    63   31   32 2
@<TRIPOS>MOLECULE
CHEMBL573577__2
   59    62     0     0     0
SMALL
USER_CHARGES

@<TRIPOS>ATOM
      1 C1         -0.3941    0.9532    0.0400 C.3       1 <0>        -0.0945
      2 C2          0.3369   -0.3548   -0.1209 C.2       1 <0>        -0.0553
      3 C3          0.6757   -0.9675   -1.3112 C.2       1 <0>        -0.0184
      4 N1          1.3340   -2.1427   -1.0136 N.pl3     1 <0>        -0.4967
      5 H1          1.6833   -2.7712   -1.6647 H         1 <0>         0.4221
      6 C4          1.4147   -2.2794    0.3205 C.2       1 <0>         0.1139
      7 C5          0.8122   -1.1860    0.9159 C.2       1 <0>        -0.2278
      8 C6          0.6872   -0.9368    2.3635 C.2       1 <0>         0.5974
      9 O1         -0.2834   -1.3482    2.9697 O.2       1 <0>        -0.5345
     10 N2          1.6486   -0.2531    3.0151 N.am      1 <0>        -0.7169
     11 C7          1.5244   -0.0054    4.4536 C.3       1 <0>         0.0862
     12 C8          2.7400    0.7850    4.9419 C.3       1 <0>         0.1049
     13 C9          2.6103    1.0436    6.4443 C.3       1 <0>         0.0236
     14 N3          3.7423    1.8614    6.9000 N.3       1 <0>        -0.5260
     15 C10         3.9171    1.7547    8.3558 C.3       1 <0>         0.0175
     16 C11         5.1403    2.5725    8.7788 C.3       1 <0>         0.0632
     17 O2          4.9730    3.9270    8.3514 O.3       1 <0>        -0.3854
     18 C12         4.8008    4.0678    6.9386 C.3       1 <0>         0.0633
     19 C13         3.5741    3.2652    6.4970 C.3       1 <0>         0.0152
     20 O3          3.9293    0.0344    4.6888 O.3       1 <0>        -0.5433
     21 C14         2.0608   -3.4304    1.0478 C.3       1 <0>        -0.0988
     22 C15         0.3969   -0.4773   -2.6057 C.2       1 <0>         0.0835
     23 C16         0.0228   -1.3496   -3.6084 C.2       1 <0>        -0.1964
     24 C17        -0.1559   -1.0453   -5.0456 C.ar      1 <0>        -0.0696
     25 C18        -0.0193    0.1168   -5.7983 C.ar      1 <0>        -0.1009
     26 C19        -0.2625    0.0844   -7.1583 C.ar      1 <0>         0.0818
     27 C20        -0.6409   -1.1025   -7.7680 C.ar      1 <0>        -0.1168
     28 C21        -0.7786   -2.2595   -7.0284 C.ar      1 <0>        -0.1056
     29 C22        -0.5381   -2.2458   -5.6590 C.ar      1 <0>         0.1317
     30 N4         -0.6025   -3.2490   -4.6980 N.am      1 <0>        -0.6503
     31 C23        -0.2777   -2.7820   -3.4805 C.2       1 <0>         0.5563
     32 O4         -0.2416   -3.4319   -2.4507 O.2       1 <0>        -0.5044
     33 F1         -0.1320    1.2097   -7.8945 F         1 <0>        -0.1345
     34 H2          0.3262    1.7707    0.0703 H         1 <0>         0.0749
     35 H3         -1.0714    1.0968   -0.8019 H         1 <0>         0.0698
     36 H4         -0.9658    0.9381    0.9679 H         1 <0>         0.0703
     37 H5          2.4229    0.0750    2.5315 H         1 <0>         0.4070
     38 H6          0.6172    0.5671    4.6467 H         1 <0>         0.0764
     39 H7          1.4731   -0.9569    4.9830 H         1 <0>         0.0722
     40 H8          2.7913    1.7365    4.4126 H         1 <0>         0.1045
     41 H9          1.6775    1.5715    6.6429 H         1 <0>         0.0510
     42 H10         2.6106    0.0932    6.9780 H         1 <0>         0.0829
     43 H11         3.0300    2.1405    8.8581 H         1 <0>         0.0434
     44 H12         4.0655    0.7100    8.6289 H         1 <0>         0.0871
     45 H13         5.2404    2.5429    9.8638 H         1 <0>         0.0990
     46 H14         6.0351    2.1535    8.3185 H         1 <0>         0.0615
     47 H15         4.6553    5.1197    6.6928 H         1 <0>         0.0988
     48 H16         5.6857    3.6923    6.4249 H         1 <0>         0.0618
     49 H17         3.4721    3.3231    5.4133 H         1 <0>         0.0867
     50 H18         2.6815    3.6751    6.9696 H         1 <0>         0.0439
     51 H19         3.9527   -0.8260    5.1295 H         1 <0>         0.3749
     52 H20         3.1133   -3.2061    1.2207 H         1 <0>         0.0831
     53 H21         1.5600   -3.5830    2.0039 H         1 <0>         0.0864
     54 H22         1.9762   -4.3346    0.4450 H         1 <0>         0.0756
     55 H23         0.4762    0.5799   -2.8115 H         1 <0>         0.1562
     56 H24         0.2751    1.0402   -5.3217 H         1 <0>         0.1428
     57 H25        -0.8299   -1.1215   -8.8311 H         1 <0>         0.1458
     58 H26        -1.0742   -3.1776   -7.5144 H         1 <0>         0.1396
     59 H27        -0.8467   -4.1692   -4.8836 H         1 <0>         0.4200
@<TRIPOS>BOND
     1    1    2 1
     2    1   34 1
     3    1   35 1
     4    1   36 1
     5    2    7 1
     6    2    3 2
     7    3    4 1
     8    3   22 1
     9    4    5 1
    10    4    6 1
    11    6    7 2
    12    6   21 1
    13    7    8 1
    14    8    9 2
    15    8   10 am
    16   10   11 1
    17   10   37 1
    18   11   12 1
    19   11   38 1
    20   11   39 1
    21   12   13 1
    22   12   20 1
    23   12   40 1
    24   13   14 1
    25   13   41 1
    26   13   42 1
    27   14   19 1
    28   14   15 1
    29   15   16 1
    30   15   43 1
    31   15   44 1
    32   16   17 1
    33   16   45 1
    34   16   46 1
    35   17   18 1
    36   18   19 1
    37   18   47 1
    38   18   48 1
    39   19   49 1
    40   19   50 1
    41   20   51 1
    42   21   52 1
    43   21   53 1
    44   21   54 1
    45   22   23 2
    46   22   55 1
    47   23   31 1
    48   23   24 1
    49   24   29 ar
    50   24   25 ar
    51   25   26 ar
    52   25   56 1
    53   26   27 ar
    54   26   33 1
    55   27   28 ar
    56   27   57 1
    57   28   29 ar
    58   28   58 1
    59   29   30 1
    60   30   31 am
    61   30   59 1
    62   31   32 2
@<TRIPOS>MOLECULE
CHEMBL573577__3
   60    63     0     0     0
SMALL
USER_CHARGES

@<TRIPOS>ATOM
      1 C1         -1.7254    0.5415    1.0994 C.3       1 <0>        -0.0933
      2 C2         -1.0351   -0.7773    0.8641 C.2       1 <0>        -0.0616
      3 C3         -0.9727   -1.4727   -0.3273 C.2       1 <0>        -0.0059
      4 N1         -0.2490   -2.6269   -0.1098 N.pl3     1 <0>        -0.4950
      5 H1         -0.0516   -3.3006   -0.7792 H         1 <0>         0.4242
      6 C4          0.1392   -2.6706    1.1757 C.2       1 <0>         0.1122
      7 C5         -0.3231   -1.5361    1.8177 C.2       1 <0>        -0.2363
      8 C6         -0.1137   -1.1861    3.2343 C.2       1 <0>         0.6057
      9 O1         -0.9131   -1.5505    4.0752 O.2       1 <0>        -0.5240
     10 N2          0.9636   -0.4623    3.5975 N.am      1 <0>        -0.7250
     11 C7          1.1717   -0.1145    5.0053 C.3       1 <0>         0.0910
     12 C8          2.4573    0.7033    5.1440 C.3       1 <0>         0.0719
     13 C9          2.6746    1.0665    6.6143 C.3       1 <0>        -0.0429
     14 N3          3.8430    1.9489    6.7331 N.4       1 <0>        -0.3811
     15 C10         4.1390    2.1814    8.1535 C.3       1 <0>        -0.0439
     16 C11         5.3568    3.1009    8.2747 C.3       1 <0>         0.0358
     17 O2          5.0929    4.3262    7.5856 O.3       1 <0>        -0.3559
     18 C12         4.7755    4.1497    6.2022 C.3       1 <0>         0.0371
     19 C13         3.5566    3.2322    6.0772 C.3       1 <0>        -0.0497
     20 O3          3.5653   -0.0677    4.6750 O.3       1 <0>        -0.5497
     21 C14         0.9498   -3.7706    1.8113 C.3       1 <0>        -0.0990
     22 C15        -1.5488   -1.0729   -1.5528 C.2       1 <0>         0.0676
     23 C16        -2.1383   -2.0106   -2.3769 C.2       1 <0>        -0.1804
     24 C17        -2.6475   -1.8075   -3.7515 C.ar      1 <0>        -0.0768
     25 C18        -2.6979   -0.7030   -4.5960 C.ar      1 <0>        -0.0986
     26 C19        -3.2494   -0.8295   -5.8569 C.ar      1 <0>         0.0832
     27 C20        -3.7498   -2.0533   -6.2763 C.ar      1 <0>        -0.1125
     28 C21        -3.7035   -3.1535   -5.4446 C.ar      1 <0>        -0.1039
     29 C22        -3.1523   -3.0450   -4.1727 C.ar      1 <0>         0.1329
     30 N4         -2.9847   -3.9768   -3.1541 N.am      1 <0>        -0.6489
     31 C23        -2.3902   -3.4276   -2.0813 C.2       1 <0>         0.5562
     32 O4         -2.1116   -4.0031   -1.0444 O.2       1 <0>        -0.5055
     33 F1         -3.3016    0.2395   -6.6813 F         1 <0>        -0.1327
     34 H2         -1.0277    1.3563    0.9062 H         1 <0>         0.0726
     35 H3         -2.5805    0.6287    0.4290 H         1 <0>         0.0723
     36 H4         -2.0673    0.5934    2.1331 H         1 <0>         0.0681
     37 H5          1.6012   -0.1717    2.9268 H         1 <0>         0.4090
     38 H6          0.3266    0.4736    5.3630 H         1 <0>         0.0878
     39 H7          1.2558   -1.0266    5.5963 H         1 <0>         0.0823
     40 H8          2.3732    1.6153    4.5530 H         1 <0>         0.1303
     41 H9          1.7918    1.5792    6.9962 H         1 <0>         0.1459
     42 H10         2.8453    0.1579    7.1916 H         1 <0>         0.1415
     43 H11         3.2796    2.6513    8.6318 H         1 <0>         0.1403
     44 H12         4.3517    1.2301    8.6411 H         1 <0>         0.1432
     45 H13         5.5521    3.3095    9.3265 H         1 <0>         0.1432
     46 H14         6.2258    2.6142    7.8320 H         1 <0>         0.0819
     47 H15         4.5502    5.1174    5.7541 H         1 <0>         0.1430
     48 H16         5.6247    3.6989    5.6885 H         1 <0>         0.0825
     49 H17         3.3370    3.0609    5.0233 H         1 <0>         0.1424
     50 H18         2.6975    3.7017    6.5562 H         1 <0>         0.1409
     51 H19         3.7003   -0.8954    5.1564 H         1 <0>         0.3940
     52 H20         2.0110   -3.5388    1.7204 H         1 <0>         0.0812
     53 H21         0.6852   -3.8543    2.8654 H         1 <0>         0.0845
     54 H22         0.7396   -4.7142    1.3079 H         1 <0>         0.0784
     55 H23        -1.5282   -0.0335   -1.8455 H         1 <0>         0.1572
     56 H24        -2.3081    0.2492   -4.2676 H         1 <0>         0.1429
     57 H25        -4.1798   -2.1458   -7.2626 H         1 <0>         0.1481
     58 H26        -4.0967   -4.1010   -5.7824 H         1 <0>         0.1416
     59 H27        -3.2583   -4.9056   -3.2121 H         1 <0>         0.4218
     60 H28         4.6389    1.5149    6.2902 H         1 <0>         0.4278
@<TRIPOS>BOND
     1    1    2 1
     2    1   34 1
     3    1   35 1
     4    1   36 1
     5    2    7 1
     6    2    3 2
     7    3    4 1
     8    3   22 1
     9    4    5 1
    10    4    6 1
    11    6    7 2
    12    6   21 1
    13    7    8 1
    14    8    9 2
    15    8   10 am
    16   10   11 1
    17   10   37 1
    18   11   12 1
    19   11   38 1
    20   11   39 1
    21   12   13 1
    22   12   20 1
    23   12   40 1
    24   13   14 1
    25   13   41 1
    26   13   42 1
    27   14   19 1
    28   14   15 1
    29   14   60 1
    30   15   16 1
    31   15   43 1
    32   15   44 1
    33   16   17 1
    34   16   45 1
    35   16   46 1
    36   17   18 1
    37   18   19 1
    38   18   47 1
    39   18   48 1
    40   19   49 1
    41   19   50 1
    42   20   51 1
    43   21   52 1
    44   21   53 1
    45   21   54 1
    46   22   23 2
    47   22   55 1
    48   23   31 1
    49   23   24 1
    50   24   29 ar
    51   24   25 ar
    52   25   26 ar
    53   25   56 1
    54   26   27 ar
    55   26   33 1
    56   27   28 ar
    57   27   57 1
    58   28   29 ar
    59   28   58 1
    60   29   30 1
    61   30   31 am
    62   30   59 1
    63   31   32 2
@<TRIPOS>MOLECULE
CHEMBL1170784
   53    56     0     0     0
SMALL
USER_CHARGES

@<TRIPOS>ATOM
      1 C1          0.0241    1.4597    0.0703 C.3       1 <0>         0.0606
      2 N1          0.0377   -0.0052    0.0533 N.am      1 <0>        -0.5711
      3 C2          0.0368   -0.6357   -1.1307 C.2       1 <0>         0.5238
      4 O1          0.0152    0.0172   -2.1518 O.2       1 <0>        -0.5008
      5 C3          0.0627   -2.1390   -1.2159 C.3       1 <0>        -0.1367
      6 C4         -0.6182   -2.7250    0.0256 C.3       1 <0>        -0.0393
      7 C5          0.0772   -2.1678    1.2723 C.3       1 <0>        -0.1359
      8 C6          0.0560   -0.6630    1.2222 C.2       1 <0>         0.5240
      9 O2          0.0512   -0.0338    2.2584 O.2       1 <0>        -0.5021
     10 C7         -0.4975   -4.2270    0.0074 C.ar      1 <0>        -0.1146
     11 C8          0.7546   -4.8178    0.0087 C.ar      1 <0>        -0.0939
     12 C9          0.8777   -6.1936   -0.0078 C.ar      1 <0>        -0.1216
     13 C10        -0.2563   -6.9927   -0.0258 C.ar      1 <0>         0.1827
     14 C11        -1.5253   -6.3977   -0.0267 C.ar      1 <0>        -0.0813
     15 C12        -1.6352   -5.0072   -0.0046 C.ar      1 <0>        -0.0773
     16 C13        -2.7396   -7.2383   -0.0458 C.2       1 <0>        -0.0947
     17 C14        -3.0662   -7.8257   -1.1723 C.2       1 <0>        -0.1217
     18 C15        -4.2755   -8.6989   -1.3396 C.3       1 <0>        -0.0886
     19 C16        -4.8004   -9.1396    0.0284 C.3       1 <0>        -0.1224
     20 C17        -4.9307   -7.9000    0.9220 C.3       1 <0>        -0.1169
     21 C18        -3.5241   -7.3751    1.2264 C.3       1 <0>        -0.0757
     22 N2         -0.1340   -8.3829   -0.0434 N.am      1 <0>        -0.6635
     23 C19         0.8850   -8.9613   -0.7095 C.2       1 <0>         0.6282
     24 O3          1.7432   -8.2717   -1.2258 O.2       1 <0>        -0.5304
     25 C20         0.9593  -10.4311   -0.8120 C.2       1 <0>         0.0485
     26 N3          0.0568  -11.3123   -0.2819 N.2       1 <0>        -0.5288
     27 C21         0.4747  -12.5570   -0.5915 C.2       1 <0>        -0.0066
     28 C22         1.6425  -12.4187   -1.3163 C.2       1 <0>        -0.0432
     29 N4          1.8987  -11.1064   -1.4314 N.2       1 <0>        -0.4516
     30 C23         2.4346  -13.4841   -1.8530 C.1       1 <0>         0.3320
     31 N5          3.0630  -14.3293   -2.2788 N.1       1 <0>        -0.4918
     32 H1          1.0482    1.8327    0.0639 H         1 <0>         0.0694
     33 H2         -0.5024    1.8284   -0.8100 H         1 <0>         0.0881
     34 H3         -0.4838    1.8078    0.9698 H         1 <0>         0.0882
     35 H4         -0.4700   -2.4623   -2.1103 H         1 <0>         0.1186
     36 H5          1.0958   -2.4835   -1.2616 H         1 <0>         0.1158
     37 H6         -1.6702   -2.4397    0.0350 H         1 <0>         0.0922
     38 H7         -0.4449   -2.5119    2.1651 H         1 <0>         0.1186
     39 H8          1.1107   -2.5132    1.2978 H         1 <0>         0.1151
     40 H9          1.6400   -4.1995    0.0223 H         1 <0>         0.1215
     41 H10         1.8576   -6.6476   -0.0071 H         1 <0>         0.1444
     42 H11        -2.6099   -4.5420   -0.0014 H         1 <0>         0.1233
     43 H12        -2.4278   -7.6717   -2.0296 H         1 <0>         0.1028
     44 H13        -5.0532   -8.1426   -1.8630 H         1 <0>         0.0709
     45 H14        -4.0076   -9.5788   -1.9245 H         1 <0>         0.0749
     46 H15        -5.7761   -9.6112   -0.0883 H         1 <0>         0.0619
     47 H16        -4.1015   -9.8442    0.4791 H         1 <0>         0.0705
     48 H17        -5.5073   -7.1339    0.4037 H         1 <0>         0.0619
     49 H18        -5.4289   -8.1704    1.8530 H         1 <0>         0.0634
     50 H19        -3.0124   -8.0686    1.8937 H         1 <0>         0.0739
     51 H20        -3.6008   -6.4014    1.7102 H         1 <0>         0.0693
     52 H21        -0.7823   -8.9328    0.4237 H         1 <0>         0.4189
     53 H22        -0.0107  -13.4840   -0.3240 H         1 <0>         0.1473
@<TRIPOS>BOND
     1    1    2 1
     2    1   32 1
     3    1   33 1
     4    1   34 1
     5    2    8 am
     6    2    3 am
     7    3    4 2
     8    3    5 1
     9    5    6 1
    10    5   35 1
    11    5   36 1
    12    6    7 1
    13    6   10 1
    14    6   37 1
    15    7    8 1
    16    7   38 1
    17    7   39 1
    18    8    9 2
    19   10   15 ar
    20   10   11 ar
    21   11   12 ar
    22   11   40 1
    23   12   13 ar
    24   12   41 1
    25   13   14 ar
    26   13   22 1
    27   14   15 ar
    28   14   16 1
    29   15   42 1
    30   16   21 1
    31   16   17 2
    32   17   18 1
    33   17   43 1
    34   18   19 1
    35   18   44 1
    36   18   45 1
    37   19   20 1
    38   19   46 1
    39   19   47 1
    40   20   21 1
    41   20   48 1
    42   20   49 1
    43   21   50 1
    44   21   51 1
    45   22   23 am
    46   22   52 1
    47   23   24 2
    48   23   25 1
    49   25   29 2
    50   25   26 1
    51   26   27 1
    52   27   28 2
    53   27   53 1
    54   28   29 1
    55   28   30 1
    56   30   31 3
@<TRIPOS>MOLECULE
CHEMBL1170784__1
   54    57     0     0     0
SMALL
USER_CHARGES

@<TRIPOS>ATOM
      1 C1          0.0241    1.4597    0.0703 C.3       1 <0>         0.0595
      2 N1          0.0377   -0.0052    0.0533 N.am      1 <0>        -0.5705
      3 C2          0.0368   -0.6357   -1.1307 C.2       1 <0>         0.5221
      4 O1          0.0152    0.0172   -2.1518 O.2       1 <0>        -0.4962
      5 C3          0.0627   -2.1390   -1.2159 C.3       1 <0>        -0.1355
      6 C4         -0.6182   -2.7250    0.0256 C.3       1 <0>        -0.0464
      7 C5          0.0772   -2.1678    1.2723 C.3       1 <0>        -0.1353
      8 C6          0.0560   -0.6630    1.2222 C.2       1 <0>         0.5221
      9 O2          0.0512   -0.0338    2.2584 O.2       1 <0>        -0.4964
     10 C7         -0.4975   -4.2270    0.0074 C.ar      1 <0>        -0.0904
     11 C8          0.7546   -4.8178    0.0087 C.ar      1 <0>        -0.0956
     12 C9          0.8777   -6.1936   -0.0078 C.ar      1 <0>        -0.1124
     13 C10        -0.2563   -6.9927   -0.0258 C.ar      1 <0>         0.1530
     14 C11        -1.5253   -6.3977   -0.0267 C.ar      1 <0>        -0.0616
     15 C12        -1.6352   -5.0072   -0.0046 C.ar      1 <0>        -0.0781
     16 C13        -2.7396   -7.2383   -0.0458 C.2       1 <0>        -0.0998
     17 C14        -3.0662   -7.8257   -1.1723 C.2       1 <0>        -0.1209
     18 C15        -4.2755   -8.6989   -1.3396 C.3       1 <0>        -0.0914
     19 C16        -4.8004   -9.1396    0.0284 C.3       1 <0>        -0.1226
     20 C17        -4.9307   -7.9000    0.9220 C.3       1 <0>        -0.1198
     21 C18        -3.5241   -7.3751    1.2264 C.3       1 <0>        -0.0773
     22 N2         -0.1340   -8.3829   -0.0434 N.am      1 <0>        -0.6400
     23 C19         0.8850   -8.9613   -0.7095 C.2       1 <0>         0.6115
     24 O3          1.7432   -8.2717   -1.2258 O.2       1 <0>        -0.5128
     25 C20         0.9593  -10.4311   -0.8120 C.2       1 <0>         0.1592
     26 N3          1.9416  -11.1354   -1.4532 N.pl3     1 <0>        -0.5110
     27 H1          2.7063  -10.7602   -1.9172 H         1 <0>         0.4428
     28 C21         1.6529  -12.4465   -1.3218 C.2       1 <0>         0.0650
     29 C22         0.4826  -12.5278   -0.5925 C.2       1 <0>         0.0605
     30 N4          0.0969  -11.2765   -0.2983 N.2       1 <0>        -0.4016
     31 C23        -0.1947  -13.7313   -0.2138 C.1       1 <0>         0.2937
     32 N5         -0.7320  -14.6861    0.0866 N.1       1 <0>        -0.3916
     33 H2          1.0482    1.8327    0.0639 H         1 <0>         0.0713
     34 H3         -0.5024    1.8284   -0.8100 H         1 <0>         0.0897
     35 H4         -0.4838    1.8079    0.9698 H         1 <0>         0.0899
     36 H5         -0.4700   -2.4623   -2.1103 H         1 <0>         0.1186
     37 H6          1.0958   -2.4835   -1.2616 H         1 <0>         0.1149
     38 H7         -1.6702   -2.4397    0.0350 H         1 <0>         0.0967
     39 H8         -0.4449   -2.5119    2.1651 H         1 <0>         0.1193
     40 H9          1.1107   -2.5132    1.2978 H         1 <0>         0.1145
     41 H10         1.6400   -4.1995    0.0223 H         1 <0>         0.1283
     42 H11         1.8576   -6.6476   -0.0071 H         1 <0>         0.1436
     43 H12        -2.6099   -4.5420   -0.0014 H         1 <0>         0.1309
     44 H13        -2.4278   -7.6717   -2.0296 H         1 <0>         0.1029
     45 H14        -5.0532   -8.1426   -1.8630 H         1 <0>         0.0765
     46 H15        -4.0076   -9.5788   -1.9245 H         1 <0>         0.0738
     47 H16        -5.7761   -9.6112   -0.0883 H         1 <0>         0.0660
     48 H17        -4.1015   -9.8442    0.4791 H         1 <0>         0.0667
     49 H18        -5.5073   -7.1339    0.4037 H         1 <0>         0.0655
     50 H19        -5.4289   -8.1704    1.8530 H         1 <0>         0.0674
     51 H20        -3.0124   -8.0686    1.8937 H         1 <0>         0.0739
     52 H21        -3.6008   -6.4014    1.7102 H         1 <0>         0.0734
     53 H22        -0.7823   -8.9328    0.4237 H         1 <0>         0.4249
     54 H23         2.2268  -13.2741   -1.7119 H         1 <0>         0.2094
@<TRIPOS>BOND
     1    1    2 1
     2    1   33 1
     3    1   34 1
     4    1   35 1
     5    2    8 am
     6    2    3 am
     7    3    4 2
     8    3    5 1
     9    5    6 1
    10    5   36 1
    11    5   37 1
    12    6    7 1
    13    6   10 1
    14    6   38 1
    15    7    8 1
    16    7   39 1
    17    7   40 1
    18    8    9 2
    19   10   15 ar
    20   10   11 ar
    21   11   12 ar
    22   11   41 1
    23   12   13 ar
    24   12   42 1
    25   13   14 ar
    26   13   22 1
    27   14   15 ar
    28   14   16 1
    29   15   43 1
    30   16   21 1
    31   16   17 2
    32   17   18 1
    33   17   44 1
    34   18   19 1
    35   18   45 1
    36   18   46 1
    37   19   20 1
    38   19   47 1
    39   19   48 1
    40   20   21 1
    41   20   49 1
    42   20   50 1
    43   21   51 1
    44   21   52 1
    45   22   23 am
    46   22   53 1
    47   23   24 2
    48   23   25 1
    49   25   30 2
    50   25   26 1
    51   26   27 1
    52   26   28 1
    53   28   29 2
    54   28   54 1
    55   29   30 1
    56   29   31 1
    57   31   32 3
@<TRIPOS>MOLECULE
CHEMBL257865
   60    64     0     0     0
SMALL
USER_CHARGES

@<TRIPOS>ATOM
      1 C1         -0.0370   -1.1789   -2.9518 C.3       1 <0>        -0.0469
      2 N1         -0.2380   -1.3468   -1.5063 N.4       1 <0>        -0.3839
      3 C2          0.6430   -2.4124   -1.0119 C.3       1 <0>        -0.0233
      4 C3          0.5184   -2.5108    0.5121 C.3       1 <0>         0.0993
      5 N2         -0.9013   -2.6896    0.8533 N.pl3     1 <0>        -0.6454
      6 C4         -1.8780   -1.7593    0.2661 C.3       1 <0>         0.1001
      7 C5         -1.6402   -1.6964   -1.2463 C.3       1 <0>        -0.0229
      8 C6         -1.3113   -3.7159    1.7118 C.ar      1 <0>         0.1837
      9 C7         -0.3896   -4.6491    2.1683 C.ar      1 <0>        -0.1639
     10 C8         -0.7941   -5.6613    3.0157 C.ar      1 <0>        -0.0598
     11 C9         -2.1224   -5.7463    3.4116 C.ar      1 <0>         0.1257
     12 C10        -3.0441   -4.8134    2.9549 C.ar      1 <0>        -0.0942
     13 C11        -2.6386   -3.7978    2.1120 C.ar      1 <0>        -0.1632
     14 N3         -2.5327   -6.7733    4.2714 N.pl3     1 <0>        -0.6263
     15 C12        -1.6803   -7.2305    5.2568 C.ar      1 <0>         0.6097
     16 N4         -0.5264   -6.5997    5.4468 N.ar      1 <0>        -0.5723
     17 C13         0.3229   -6.9984    6.3773 C.ar      1 <0>         0.2831
     18 C14        -0.0193   -8.1021    7.1607 C.ar      1 <0>        -0.3351
     19 C15         0.8657   -8.6122    8.2179 C.2       1 <0>         0.4539
     20 O1          1.9408   -8.0894    8.4551 O.2       1 <0>        -0.4780
     21 C16         0.3951   -9.7835    8.9785 C.2       1 <0>        -0.3209
     22 C17        -0.8295  -10.3322    8.6661 C.2       1 <0>         0.2510
     23 N5         -1.6109   -9.8361    7.6908 N.pl3     1 <0>        -0.4253
     24 C18        -1.2508   -8.7489    6.9338 C.ar      1 <0>         0.4675
     25 N6         -2.0465   -8.2777    5.9801 N.ar      1 <0>        -0.5847
     26 C19        -2.8416  -10.4532    7.4370 C.ar      1 <0>         0.0910
     27 C20        -3.8457  -10.4238    8.3960 C.ar      1 <0>        -0.1024
     28 C21        -5.0587  -11.0336    8.1426 C.ar      1 <0>        -0.1049
     29 C22        -5.2738  -11.6734    6.9357 C.ar      1 <0>        -0.0980
     30 C23        -4.2759  -11.7049    5.9789 C.ar      1 <0>        -0.1076
     31 C24        -3.0630  -11.0912    6.2235 C.ar      1 <0>        -0.0810
     32 C25         1.2196  -10.3577   10.0534 C.2       1 <0>         0.5893
     33 O2          0.7812  -11.2614   10.7395 O.2       1 <0>        -0.5555
     34 N7          2.4606   -9.8824   10.2779 N.am      1 <0>        -0.8427
     35 H1         -0.6847   -0.3827   -3.3186 H         1 <0>         0.1250
     36 H2          1.0037   -0.9194   -3.1461 H         1 <0>         0.1251
     37 H3         -0.2807   -2.1102   -3.4631 H         1 <0>         0.1214
     38 H4          0.3532   -3.3618   -1.4623 H         1 <0>         0.1322
     39 H5          1.6749   -2.1836   -1.2782 H         1 <0>         0.1408
     40 H6          1.0920   -3.3649    0.8721 H         1 <0>         0.1271
     41 H7          0.8927   -1.5952    0.9700 H         1 <0>         0.0879
     42 H8         -2.8887   -2.1166    0.4634 H         1 <0>         0.1260
     43 H9         -1.7457   -0.7679    0.6992 H         1 <0>         0.0873
     44 H10        -2.2908   -0.9400   -1.6853 H         1 <0>         0.1405
     45 H11        -1.8609   -2.6674   -1.6896 H         1 <0>         0.1321
     46 H12         0.6434   -4.5832    1.8601 H         1 <0>         0.1270
     47 H13        -0.0774   -6.3873    3.3704 H         1 <0>         0.1390
     48 H14        -4.0772   -4.8798    3.2625 H         1 <0>         0.1317
     49 H15        -3.3545   -3.0694    1.7606 H         1 <0>         0.1278
     50 H16        -3.4155   -7.1632    4.1745 H         1 <0>         0.4275
     51 H17         1.2599   -6.4828    6.5279 H         1 <0>         0.1933
     52 H18        -1.1735  -11.1908    9.2237 H         1 <0>         0.1909
     53 H19        -3.6780   -9.9249    9.3391 H         1 <0>         0.1319
     54 H20        -5.8399  -11.0111    8.8880 H         1 <0>         0.1365
     55 H21        -6.2231  -12.1498    6.7400 H         1 <0>         0.1333
     56 H22        -4.4468  -12.2059    5.0375 H         1 <0>         0.1339
     57 H23        -2.2859  -11.1117    5.4738 H         1 <0>         0.1250
     58 H24         2.7832   -9.1145    9.7806 H         1 <0>         0.4128
     59 H25         3.0313  -10.3081   10.9367 H         1 <0>         0.4031
     60 H26        -0.0149   -0.4833   -1.0344 H         1 <0>         0.4249
@<TRIPOS>BOND
     1    1    2 1
     2    1   35 1
     3    1   36 1
     4    1   37 1
     5    2    7 1
     6    2    3 1
     7    2   60 1
     8    3    4 1
     9    3   38 1
    10    3   39 1
    11    4    5 1
    12    4   40 1
    13    4   41 1
    14    5    6 1
    15    5    8 1
    16    6    7 1
    17    6   42 1
    18    6   43 1
    19    7   44 1
    20    7   45 1
    21    8   13 ar
    22    8    9 ar
    23    9   10 ar
    24    9   46 1
    25   10   11 ar
    26   10   47 1
    27   11   12 ar
    28   11   14 1
    29   12   13 ar
    30   12   48 1
    31   13   49 1
    32   14   15 1
    33   14   50 1
    34   15   25 ar
    35   15   16 ar
    36   16   17 ar
    37   17   18 ar
    38   17   51 1
    39   18   24 ar
    40   18   19 1
    41   19   20 2
    42   19   21 1
    43   21   22 2
    44   21   32 1
    45   22   23 1
    46   22   52 1
    47   23   24 1
    48   23   26 1
    49   24   25 ar
    50   26   31 ar
    51   26   27 ar
    52   27   28 ar
    53   27   53 1
    54   28   29 ar
    55   28   54 1
    56   29   30 ar
    57   29   55 1
    58   30   31 ar
    59   30   56 1
    60   31   57 1
    61   32   33 2
    62   32   34 am
    63   34   58 1
    64   34   59 1
@<TRIPOS>MOLECULE
CHEMBL257865__1
   59    63     0     0     0
SMALL
USER_CHARGES

@<TRIPOS>ATOM
      1 C1          0.1158   -1.0604   -3.0346 C.3       1 <0>         0.0242
      2 N1         -0.1450   -1.3431   -1.6168 N.3       1 <0>        -0.5428
      3 C2          0.7570   -2.3878   -1.1137 C.3       1 <0>         0.0382
      4 C3          0.5791   -2.5249    0.4021 C.3       1 <0>         0.1252
      5 N2         -0.8470   -2.7444    0.6873 N.pl3     1 <0>        -0.6306
      6 C4         -1.8248   -1.8148    0.1016 C.3       1 <0>         0.1259
      7 C5         -1.5523   -1.7055   -1.4024 C.3       1 <0>         0.0386
      8 C6         -1.2625   -3.8096    1.4940 C.ar      1 <0>         0.2150
      9 C7         -0.3363   -4.7399    1.9473 C.ar      1 <0>        -0.1817
     10 C8         -0.7463   -5.7906    2.7437 C.ar      1 <0>        -0.0526
     11 C9         -2.0847   -5.9172    3.0914 C.ar      1 <0>         0.0884
     12 C10        -3.0110   -4.9873    2.6378 C.ar      1 <0>        -0.0863
     13 C11        -2.6002   -3.9333    1.8461 C.ar      1 <0>        -0.1816
     14 N3         -2.5006   -6.9833    3.8994 N.pl3     1 <0>        -0.6178
     15 C12        -1.6714   -7.4588    4.8958 C.ar      1 <0>         0.6118
     16 N4         -0.5382   -6.8119    5.1470 N.ar      1 <0>        -0.5657
     17 C13         0.2885   -7.2270    6.0905 C.ar      1 <0>         0.2835
     18 C14        -0.0552   -8.3655    6.8218 C.ar      1 <0>        -0.3425
     19 C15         0.8054   -8.8958    7.8890 C.2       1 <0>         0.4552
     20 O1          1.8605   -8.3602    8.1808 O.2       1 <0>        -0.4820
     21 C16         0.3357  -10.1036    8.5907 C.2       1 <0>        -0.3256
     22 C17        -0.8658  -10.6655    8.2177 C.2       1 <0>         0.2523
     23 N5         -1.6254  -10.1500    7.2353 N.pl3     1 <0>        -0.4268
     24 C18        -1.2643   -9.0287    6.5304 C.ar      1 <0>         0.4653
     25 N6         -2.0383   -8.5391    5.5681 N.ar      1 <0>        -0.5903
     26 C19        -2.8334  -10.7825    6.9182 C.ar      1 <0>         0.0950
     27 C20        -3.8688  -10.8089    7.8434 C.ar      1 <0>        -0.1034
     28 C21        -5.0593  -11.4337    7.5275 C.ar      1 <0>        -0.1065
     29 C22        -5.2208  -12.0331    6.2918 C.ar      1 <0>        -0.1002
     30 C23        -4.1915  -12.0089    5.3685 C.ar      1 <0>        -0.1076
     31 C24        -3.0010  -11.3800    5.6757 C.ar      1 <0>        -0.0801
     32 C25         1.1367  -10.6999    9.6713 C.2       1 <0>         0.5911
     33 O2          0.6957  -11.6370   10.3093 O.2       1 <0>        -0.5600
     34 N7          2.3591  -10.2078    9.9543 N.am      1 <0>        -0.8433
     35 H1         -0.5123   -0.2316   -3.3613 H         1 <0>         0.0708
     36 H2          1.1648   -0.7948   -3.1652 H         1 <0>         0.0706
     37 H3         -0.1117   -1.9451   -3.6292 H         1 <0>         0.0258
     38 H4          0.5192   -3.3363   -1.5952 H         1 <0>         0.0384
     39 H5          1.7888   -2.1153   -1.3357 H         1 <0>         0.0862
     40 H6          1.1596   -3.3737    0.7636 H         1 <0>         0.0877
     41 H7          0.9147   -1.6121    0.8942 H         1 <0>         0.0712
     42 H8         -2.8336   -2.1941    0.2643 H         1 <0>         0.0864
     43 H9         -1.7203   -0.8337    0.5648 H         1 <0>         0.0706
     44 H10        -2.1953   -0.9383   -1.8338 H         1 <0>         0.0860
     45 H11        -1.7579   -2.6636   -1.8798 H         1 <0>         0.0383
     46 H12         0.7046   -4.6416    1.6766 H         1 <0>         0.1265
     47 H13        -0.0261   -6.5142    3.0959 H         1 <0>         0.1318
     48 H14        -4.0520   -5.0861    2.9080 H         1 <0>         0.1244
     49 H15        -3.3198   -3.2074    1.4974 H         1 <0>         0.1271
     50 H16        -3.3712   -7.3874    3.7589 H         1 <0>         0.4239
     51 H17         1.2086   -6.6982    6.2910 H         1 <0>         0.1918
     52 H18        -1.2093  -11.5508    8.7321 H         1 <0>         0.1885
     53 H19        -3.7431  -10.3417    8.8089 H         1 <0>         0.1312
     54 H20        -5.8649  -11.4546    8.2465 H         1 <0>         0.1349
     55 H21        -6.1526  -12.5213    6.0473 H         1 <0>         0.1318
     56 H22        -4.3205  -12.4785    4.4046 H         1 <0>         0.1333
     57 H23        -2.1994  -11.3570    4.9523 H         1 <0>         0.1259
     58 H24         2.6810   -9.4158    9.4962 H         1 <0>         0.4135
     59 H25         2.9169  -10.6457   10.6161 H         1 <0>         0.4013
@<TRIPOS>BOND
     1    1    2 1
     2    1   35 1
     3    1   36 1
     4    1   37 1
     5    2    7 1
     6    2    3 1
     7    3    4 1
     8    3   38 1
     9    3   39 1
    10    4    5 1
    11    4   40 1
    12    4   41 1
    13    5    6 1
    14    5    8 1
    15    6    7 1
    16    6   42 1
    17    6   43 1
    18    7   44 1
    19    7   45 1
    20    8   13 ar
    21    8    9 ar
    22    9   10 ar
    23    9   46 1
    24   10   11 ar
    25   10   47 1
    26   11   12 ar
    27   11   14 1
    28   12   13 ar
    29   12   48 1
    30   13   49 1
    31   14   15 1
    32   14   50 1
    33   15   25 ar
    34   15   16 ar
    35   16   17 ar
    36   17   18 ar
    37   17   51 1
    38   18   24 ar
    39   18   19 1
    40   19   20 2
    41   19   21 1
    42   21   22 2
    43   21   32 1
    44   22   23 1
    45   22   52 1
    46   23   24 1
    47   23   26 1
    48   24   25 ar
    49   26   31 ar
    50   26   27 ar
    51   27   28 ar
    52   27   53 1
    53   28   29 ar
    54   28   54 1
    55   29   30 ar
    56   29   55 1
    57   30   31 ar
    58   30   56 1
    59   31   57 1
    60   32   33 2
    61   32   34 am
    62   34   58 1
    63   34   59 1
@<TRIPOS>MOLECULE
CHEMBL257665
   67    72     0     0     0
SMALL
USER_CHARGES

@<TRIPOS>ATOM
      1 C1         -1.8025    2.6233    1.6118 C.3       1 <0>        -0.0469
      2 N1         -1.7877    1.8537    2.8630 N.4       1 <0>        -0.3839
      3 C2         -0.8221    0.7536    2.7474 C.3       1 <0>        -0.0234
      4 C3         -0.7216    0.0204    4.0891 C.3       1 <0>         0.0993
      5 N2         -2.0726   -0.3976    4.4944 N.pl3     1 <0>        -0.6454
      6 C4         -3.1435    0.6110    4.4811 C.3       1 <0>         0.1001
      7 C5         -3.1296    1.3163    3.1209 C.3       1 <0>        -0.0229
      8 C6         -2.3318   -1.7172    4.8812 C.ar      1 <0>         0.1830
      9 C7         -1.3358   -2.6795    4.7781 C.ar      1 <0>        -0.1638
     10 C8         -1.5915   -3.9814    5.1601 C.ar      1 <0>        -0.0606
     11 C9         -2.8447   -4.3288    5.6470 C.ar      1 <0>         0.1264
     12 C10        -3.8407   -3.3667    5.7502 C.ar      1 <0>        -0.0953
     13 C11        -3.5834   -2.0635    5.3735 C.ar      1 <0>        -0.1632
     14 N3         -3.1043   -5.6499    6.0338 N.pl3     1 <0>        -0.6271
     15 C12        -2.1023   -6.4134    6.5990 C.ar      1 <0>         0.6100
     16 N4         -0.9384   -5.8356    6.8768 N.ar      1 <0>        -0.5748
     17 C13         0.0516   -6.5234    7.4181 C.ar      1 <0>         0.2827
     18 C14        -0.1519   -7.8767    7.6935 C.ar      1 <0>        -0.3388
     19 C15         0.8943   -8.7160    8.2952 C.2       1 <0>         0.4530
     20 O1          1.9890   -8.2625    8.5802 O.2       1 <0>        -0.4827
     21 C16         0.5596  -10.1306    8.5387 C.2       1 <0>        -0.3354
     22 C17        -0.6948  -10.5859    8.1959 C.2       1 <0>         0.2386
     23 N5         -1.6235   -9.7862    7.6476 N.pl3     1 <0>        -0.4625
     24 C18        -1.3982   -8.4595    7.3867 C.ar      1 <0>         0.4694
     25 N6         -2.3398   -7.6920    6.8485 N.ar      1 <0>        -0.5944
     26 C19        -2.9317  -10.3550    7.3145 C.3       1 <0>         0.1161
     27 C20        -3.3006  -11.4781    8.3106 C.3       1 <0>        -0.1437
     28 C21        -3.4364  -12.7574    7.4297 C.3       1 <0>        -0.0992
     29 C22        -1.9769  -13.0849    6.9892 C.3       1 <0>        -0.1353
     30 C23        -1.6081  -11.9618    5.9931 C.3       1 <0>        -0.1383
     31 C24        -2.8794  -11.0616    5.9255 C.3       1 <0>        -0.1073
     32 C25        -4.0071  -12.1384    6.1051 C.3       1 <0>        -0.1186
     33 C26         1.5484  -11.0411    9.1372 C.2       1 <0>         0.5895
     34 O2          1.2292  -12.1774    9.4312 O.2       1 <0>        -0.5587
     35 N7          2.8079  -10.6160    9.3597 N.am      1 <0>        -0.8433
     36 H1         -2.5132    3.4452    1.6992 H         1 <0>         0.1250
     37 H2         -0.8069    3.0228    1.4192 H         1 <0>         0.1251
     38 H3         -2.0986    1.9730    0.7887 H         1 <0>         0.1214
     39 H4         -1.1544    0.0578    1.9770 H         1 <0>         0.1322
     40 H5          0.1551    1.1544    2.4783 H         1 <0>         0.1407
     41 H6         -0.0841   -0.8570    3.9802 H         1 <0>         0.1271
     42 H7         -0.3040    0.6892    4.8416 H         1 <0>         0.0878
     43 H8         -4.1071    0.1241    4.6315 H         1 <0>         0.1259
     44 H9         -2.9704    1.3395    5.2733 H         1 <0>         0.0872
     45 H10        -3.8527    2.1319    3.1270 H         1 <0>         0.1405
     46 H11        -3.3921    0.6035    2.3392 H         1 <0>         0.1321
     47 H12        -0.3613   -2.4095    4.3987 H         1 <0>         0.1267
     48 H13        -0.8169   -4.7297    5.0800 H         1 <0>         0.1402
     49 H14        -4.8154   -3.6369    6.1288 H         1 <0>         0.1316
     50 H15        -4.3568   -1.3143    5.4575 H         1 <0>         0.1276
     51 H16        -3.9880   -6.0283    5.9045 H         1 <0>         0.4269
     52 H17         0.9961   -6.0498    7.6419 H         1 <0>         0.1915
     53 H18        -0.9395  -11.6226    8.3742 H         1 <0>         0.1972
     54 H19        -3.6952   -9.5770    7.3165 H         1 <0>         0.1233
     55 H20        -2.5085  -11.6069    9.0482 H         1 <0>         0.0815
     56 H21        -4.2467  -11.2536    8.8030 H         1 <0>         0.0900
     57 H22        -4.0091  -13.5767    7.8643 H         1 <0>         0.1134
     58 H23        -1.3071  -13.0653    7.8489 H         1 <0>         0.0743
     59 H24        -1.9373  -14.0569    6.4976 H         1 <0>         0.0790
     60 H25        -0.7569  -11.3901    6.3630 H         1 <0>         0.0641
     61 H26        -1.3872  -12.3818    5.0118 H         1 <0>         0.0778
     62 H27        -2.9555  -10.4091    5.0557 H         1 <0>         0.1073
     63 H28        -4.0175  -12.8597    5.2880 H         1 <0>         0.0825
     64 H29        -4.9863  -11.6837    6.2552 H         1 <0>         0.0776
     65 H30         3.0438   -9.6899    9.1934 H         1 <0>         0.4127
     66 H31         3.4785  -11.2361    9.6862 H         1 <0>         0.4022
     67 H32        -1.5164    2.4574    3.6246 H         1 <0>         0.4249
@<TRIPOS>BOND
     1    1    2 1
     2    1   36 1
     3    1   37 1
     4    1   38 1
     5    2    7 1
     6    2    3 1
     7    2   67 1
     8    3    4 1
     9    3   39 1
    10    3   40 1
    11    4    5 1
    12    4   41 1
    13    4   42 1
    14    5    6 1
    15    5    8 1
    16    6    7 1
    17    6   43 1
    18    6   44 1
    19    7   45 1
    20    7   46 1
    21    8   13 ar
    22    8    9 ar
    23    9   10 ar
    24    9   47 1
    25   10   11 ar
    26   10   48 1
    27   11   12 ar
    28   11   14 1
    29   12   13 ar
    30   12   49 1
    31   13   50 1
    32   14   15 1
    33   14   51 1
    34   15   25 ar
    35   15   16 ar
    36   16   17 ar
    37   17   18 ar
    38   17   52 1
    39   18   24 ar
    40   18   19 1
    41   19   20 2
    42   19   21 1
    43   21   22 2
    44   21   33 1
    45   22   23 1
    46   22   53 1
    47   23   24 1
    48   23   26 1
    49   24   25 ar
    50   26   31 1
    51   26   27 1
    52   26   54 1
    53   27   28 1
    54   27   55 1
    55   27   56 1
    56   28   32 1
    57   28   29 1
    58   28   57 1
    59   29   30 1
    60   29   58 1
    61   29   59 1
    62   30   31 1
    63   30   60 1
    64   30   61 1
    65   31   32 1
    66   31   62 1
    67   32   63 1
    68   32   64 1
    69   33   34 2
    70   33   35 am
    71   35   65 1
    72   35   66 1
@<TRIPOS>MOLECULE
CHEMBL257665__1
   66    71     0     0     0
SMALL
USER_CHARGES

@<TRIPOS>ATOM
      1 C1         -1.9006    2.5328    1.6044 C.3       1 <0>         0.0242
      2 N1         -1.9244    1.6700    2.7931 N.3       1 <0>        -0.5427
      3 C2         -0.9138    0.6085    2.6934 C.3       1 <0>         0.0381
      4 C3         -0.8462   -0.1541    4.0208 C.3       1 <0>         0.1252
      5 N2         -2.2000   -0.6147    4.3645 N.pl3     1 <0>        -0.6308
      6 C4         -3.2939    0.3685    4.3512 C.3       1 <0>         0.1260
      7 C5         -3.2651    1.1105    3.0107 C.3       1 <0>         0.0386
      8 C6         -2.4412   -1.9530    4.6949 C.ar      1 <0>         0.2142
      9 C7         -1.4203   -2.8887    4.5909 C.ar      1 <0>        -0.1815
     10 C8         -1.6581   -4.2090    4.9174 C.ar      1 <0>        -0.0535
     11 C9         -2.9182   -4.6013    5.3494 C.ar      1 <0>         0.0892
     12 C10        -3.9391   -3.6657    5.4534 C.ar      1 <0>        -0.0874
     13 C11        -3.6998   -2.3443    5.1324 C.ar      1 <0>        -0.1815
     14 N3         -3.1597   -5.9411    5.6798 N.pl3     1 <0>        -0.6189
     15 C12        -2.1592   -6.7025    6.2506 C.ar      1 <0>         0.6120
     16 N4         -1.0187   -6.1099    6.5877 N.ar      1 <0>        -0.5681
     17 C13        -0.0313   -6.7951    7.1369 C.ar      1 <0>         0.2831
     18 C14        -0.2123   -8.1617    7.3568 C.ar      1 <0>        -0.3461
     19 C15         0.8328   -8.9992    7.9628 C.2       1 <0>         0.4544
     20 O1          1.9068   -8.5325    8.3003 O.2       1 <0>        -0.4867
     21 C16         0.5232  -10.4287    8.1442 C.2       1 <0>        -0.3404
     22 C17        -0.7085  -10.8987    7.7435 C.2       1 <0>         0.2400
     23 N5         -1.6370  -10.1000    7.1934 N.pl3     1 <0>        -0.4634
     24 C18        -1.4341   -8.7601    6.9878 C.ar      1 <0>         0.4674
     25 N6         -2.3752   -7.9943    6.4461 N.ar      1 <0>        -0.5996
     26 C19        -2.9202  -10.6849    6.7964 C.3       1 <0>         0.1165
     27 C20        -3.2955  -11.8511    7.7391 C.3       1 <0>        -0.1431
     28 C21        -3.3728  -13.1004    6.8093 C.3       1 <0>        -0.0996
     29 C22        -1.8925  -13.3796    6.4068 C.3       1 <0>        -0.1343
     30 C23        -1.5171  -12.2134    5.4641 C.3       1 <0>        -0.1384
     31 C24        -2.8060  -11.3394    5.3858 C.3       1 <0>        -0.1072
     32 C25        -3.9139  -12.4464    5.4891 C.3       1 <0>        -0.1185
     33 C26         1.5127  -11.3385    8.7426 C.2       1 <0>         0.5912
     34 O2          1.2103  -12.4915    8.9851 O.2       1 <0>        -0.5633
     35 N7          2.7541  -10.8944    9.0220 N.am      1 <0>        -0.8439
     36 H1         -2.6046    3.3542    1.7375 H         1 <0>         0.0708
     37 H2         -0.8964    2.9337    1.4665 H         1 <0>         0.0705
     38 H3         -2.1830    1.9507    0.7272 H         1 <0>         0.0258
     39 H4         -1.1860   -0.0789    1.8925 H         1 <0>         0.0384
     40 H5          0.0588    1.0512    2.4784 H         1 <0>         0.0861
     41 H6         -0.1828   -1.0127    3.9165 H         1 <0>         0.0877
     42 H7         -0.4743    0.5064    4.8041 H         1 <0>         0.0710
     43 H8         -4.2488   -0.1446    4.4652 H         1 <0>         0.0864
     44 H9         -3.1573    1.0792    5.1662 H         1 <0>         0.0705
     45 H10        -3.9978    1.9173    3.0258 H         1 <0>         0.0859
     46 H11        -3.5046    0.4161    2.2054 H         1 <0>         0.0383
     47 H12        -0.4404   -2.5838    4.2543 H         1 <0>         0.1262
     48 H13        -0.8642   -4.9367    4.8366 H         1 <0>         0.1330
     49 H14        -4.9191   -3.9709    5.7894 H         1 <0>         0.1243
     50 H15        -4.4927   -1.6159    5.2172 H         1 <0>         0.1269
     51 H16        -4.0297   -6.3338    5.5075 H         1 <0>         0.4233
     52 H17         0.8941   -6.3093    7.4090 H         1 <0>         0.1899
     53 H18        -0.9348  -11.9463    7.8763 H         1 <0>         0.1949
     54 H19        -3.7010   -9.9244    6.8004 H         1 <0>         0.1237
     55 H20        -2.5253  -11.9892    8.4980 H         1 <0>         0.0810
     56 H21        -4.2622  -11.6653    8.2071 H         1 <0>         0.0889
     57 H22        -3.9404  -13.9471    7.1952 H         1 <0>         0.1117
     58 H23        -1.2519  -13.3766    7.2887 H         1 <0>         0.0739
     59 H24        -1.8144  -14.3321    5.8827 H         1 <0>         0.0772
     60 H25        -0.6920  -11.6371    5.8826 H         1 <0>         0.0654
     61 H26        -1.2546  -12.5926    4.4765 H         1 <0>         0.0767
     62 H27        -2.8686  -10.6576    4.5377 H         1 <0>         0.1082
     63 H28        -3.8808  -13.1377    4.6471 H         1 <0>         0.0812
     64 H29        -4.9077  -12.0189    5.6223 H         1 <0>         0.0773
     65 H30         2.9738   -9.9579    8.8967 H         1 <0>         0.4134
     66 H31         3.4279  -11.5112    9.3484 H         1 <0>         0.4004
@<TRIPOS>BOND
     1    1    2 1
     2    1   36 1
     3    1   37 1
     4    1   38 1
     5    2    7 1
     6    2    3 1
     7    3    4 1
     8    3   39 1
     9    3   40 1
    10    4    5 1
    11    4   41 1
    12    4   42 1
    13    5    6 1
    14    5    8 1
    15    6    7 1
    16    6   43 1
    17    6   44 1
    18    7   45 1
    19    7   46 1
    20    8   13 ar
    21    8    9 ar
    22    9   10 ar
    23    9   47 1
    24   10   11 ar
    25   10   48 1
    26   11   12 ar
    27   11   14 1
    28   12   13 ar
    29   12   49 1
    30   13   50 1
    31   14   15 1
    32   14   51 1
    33   15   25 ar
    34   15   16 ar
    35   16   17 ar
    36   17   18 ar
    37   17   52 1
    38   18   24 ar
    39   18   19 1
    40   19   20 2
    41   19   21 1
    42   21   22 2
    43   21   33 1
    44   22   23 1
    45   22   53 1
    46   23   24 1
    47   23   26 1
    48   24   25 ar
    49   26   31 1
    50   26   27 1
    51   26   54 1
    52   27   28 1
    53   27   55 1
    54   27   56 1
    55   28   32 1
    56   28   29 1
    57   28   57 1
    58   29   30 1
    59   29   58 1
    60   29   59 1
    61   30   31 1
    62   30   60 1
    63   30   61 1
    64   31   32 1
    65   31   62 1
    66   32   63 1
    67   32   64 1
    68   33   34 2
    69   33   35 am
    70   35   65 1
    71   35   66 1
@<TRIPOS>MOLECULE
CHEMBL257665__2
   67    72     0     0     0
SMALL
USER_CHARGES

@<TRIPOS>ATOM
      1 C1          1.4921   -1.9167   -3.3026 C.3       1 <0>        -0.0470
      2 N1          1.1431   -1.9789   -1.8770 N.4       1 <0>        -0.3839
      3 C2          1.9059   -3.0567   -1.2348 C.3       1 <0>        -0.0234
      4 C3          1.6296   -3.0487    0.2723 C.3       1 <0>         0.0993
      5 N2          0.1754   -3.1268    0.4802 N.pl3     1 <0>        -0.6454
      6 C4         -0.6817   -2.1846   -0.2558 C.3       1 <0>         0.1001
      7 C5         -0.2963   -2.2334   -1.7380 C.3       1 <0>        -0.0229
      8 C6         -0.3770   -4.0710    1.3529 C.ar      1 <0>         0.1832
      9 C7          0.4372   -5.0242    1.9506 C.ar      1 <0>        -0.1639
     10 C8         -0.1078   -5.9554    2.8120 C.ar      1 <0>        -0.0600
     11 C9         -1.4702   -5.9392    3.0805 C.ar      1 <0>         0.1263
     12 C10        -2.2844   -4.9862    2.4830 C.ar      1 <0>        -0.0949
     13 C11        -1.7386   -4.0513    1.6259 C.ar      1 <0>        -0.1634
     14 N3         -2.0232   -6.8846    3.9538 N.pl3     1 <0>        -0.6274
     15 C12        -1.2960   -7.3297    5.0399 C.ar      1 <0>         0.6092
     16 N4         -0.1234   -6.7614    5.3000 N.ar      1 <0>        -0.5747
     17 C13         0.6100   -7.1518    6.3275 C.ar      1 <0>         0.2823
     18 C14         0.1246   -8.1793    7.1384 C.ar      1 <0>        -0.3381
     19 C15         0.8743   -8.6750    8.3016 C.2       1 <0>         0.4525
     20 O1          1.9569   -8.2067    8.6081 O.2       1 <0>        -0.4830
     21 C16         0.2576   -9.7634    9.0809 C.2       1 <0>        -0.3303
     22 C17        -0.9687  -10.2521    8.6860 C.2       1 <0>         0.2414
     23 N5         -1.6219   -9.7715    7.6160 N.pl3     1 <0>        -0.4636
     24 C18        -1.1229   -8.7613    6.8353 C.ar      1 <0>         0.4671
     25 N6         -1.7963   -8.3031    5.7855 N.ar      1 <0>        -0.5911
     26 C19        -2.9219  -10.3508    7.2684 C.3       1 <0>         0.1245
     27 C20        -4.0562   -9.3410    7.5568 C.3       1 <0>        -0.1177
     28 C21        -4.9496  -10.0456    8.6229 C.3       1 <0>        -0.1021
     29 C22        -5.6430  -11.2061    7.8459 C.3       1 <0>        -0.1238
     30 C23        -4.5086  -12.2158    7.5575 C.3       1 <0>        -0.1154
     31 C24        -3.2367  -11.5704    8.1875 C.3       1 <0>        -0.1226
     32 C25        -3.8647  -10.8437    9.4289 C.3       1 <0>        -0.1334
     33 C26         0.9400  -10.3190   10.2601 C.2       1 <0>         0.5892
     34 O2          0.3787  -11.1448   10.9547 O.2       1 <0>        -0.5580
     35 N7          2.1871   -9.9129   10.5706 N.am      1 <0>        -0.8437
     36 H1          0.9324   -1.1117   -3.7789 H         1 <0>         0.1250
     37 H2          2.5605   -1.7278   -3.4073 H         1 <0>         0.1251
     38 H3          1.2423   -2.8645   -3.7795 H         1 <0>         0.1214
     39 H4          1.6035   -4.0161   -1.6547 H         1 <0>         0.1322
     40 H5          2.9707   -2.9027   -1.4099 H         1 <0>         0.1408
     41 H6          2.1128   -3.9077    0.7378 H         1 <0>         0.1271
     42 H7          2.0132   -2.1272    0.7101 H         1 <0>         0.0879
     43 H8         -1.7266   -2.4723   -0.1394 H         1 <0>         0.1259
     44 H9         -0.5315   -1.1758    0.1287 H         1 <0>         0.0872
     45 H10        -0.8543   -1.4726   -2.2839 H         1 <0>         0.1405
     46 H11        -0.5321   -3.2176   -2.1426 H         1 <0>         0.1321
     47 H12         1.4966   -5.0372    1.7412 H         1 <0>         0.1267
     48 H13         0.5254   -6.6967    3.2768 H         1 <0>         0.1396
     49 H14        -3.3439   -4.9736    2.6918 H         1 <0>         0.1315
     50 H15        -2.3712   -3.3075    1.1644 H         1 <0>         0.1276
     51 H16        -2.9170   -7.2266    3.7956 H         1 <0>         0.4268
     52 H17         1.5626   -6.6872    6.5350 H         1 <0>         0.1912
     53 H18        -1.4201  -11.0499    9.2571 H         1 <0>         0.1944
     54 H19        -2.9353  -10.6510    6.2207 H         1 <0>         0.1093
     55 H20        -3.6467   -8.4136    7.9572 H         1 <0>         0.0687
     56 H21        -4.6294   -9.1444    6.6507 H         1 <0>         0.0841
     57 H22        -5.5998   -9.3934    9.2060 H         1 <0>         0.1072
     58 H23        -6.4151  -11.6675    8.4615 H         1 <0>         0.0713
     59 H24        -6.0695  -10.8372    6.9131 H         1 <0>         0.0687
     60 H25        -4.7231  -13.1737    8.0314 H         1 <0>         0.0788
     61 H26        -4.3775  -12.3434    6.4830 H         1 <0>         0.0701
     62 H27        -2.4052  -12.2477    8.3819 H         1 <0>         0.1143
     63 H28        -3.1510  -10.1819    9.9194 H         1 <0>         0.0724
     64 H29        -4.3124  -11.5470   10.1310 H         1 <0>         0.0870
     65 H30         2.6068   -9.2024   10.0608 H         1 <0>         0.4126
     66 H31         2.6648  -10.3311   11.3039 H         1 <0>         0.4022
     67 H32         1.3721   -1.1000   -1.4374 H         1 <0>         0.4249
@<TRIPOS>BOND
     1    1    2 1
     2    1   36 1
     3    1   37 1
     4    1   38 1
     5    2    7 1
     6    2    3 1
     7    2   67 1
     8    3    4 1
     9    3   39 1
    10    3   40 1
    11    4    5 1
    12    4   41 1
    13    4   42 1
    14    5    6 1
    15    5    8 1
    16    6    7 1
    17    6   43 1
    18    6   44 1
    19    7   45 1
    20    7   46 1
    21    8   13 ar
    22    8    9 ar
    23    9   10 ar
    24    9   47 1
    25   10   11 ar
    26   10   48 1
    27   11   12 ar
    28   11   14 1
    29   12   13 ar
    30   12   49 1
    31   13   50 1
    32   14   15 1
    33   14   51 1
    34   15   25 ar
    35   15   16 ar
    36   16   17 ar
    37   17   18 ar
    38   17   52 1
    39   18   24 ar
    40   18   19 1
    41   19   20 2
    42   19   21 1
    43   21   22 2
    44   21   33 1
    45   22   23 1
    46   22   53 1
    47   23   24 1
    48   23   26 1
    49   24   25 ar
    50   26   31 1
    51   26   27 1
    52   26   54 1
    53   27   28 1
    54   27   55 1
    55   27   56 1
    56   28   32 1
    57   28   29 1
    58   28   57 1
    59   29   30 1
    60   29   58 1
    61   29   59 1
    62   30   31 1
    63   30   60 1
    64   30   61 1
    65   31   32 1
    66   31   62 1
    67   32   63 1
    68   32   64 1
    69   33   34 2
    70   33   35 am
    71   35   65 1
    72   35   66 1
@<TRIPOS>MOLECULE
CHEMBL257665__3
   66    71     0     0     0
SMALL
USER_CHARGES

@<TRIPOS>ATOM
      1 C1          1.6733   -1.7523   -3.3592 C.3       1 <0>         0.0242
      2 N1          1.2606   -1.9315   -1.9608 N.3       1 <0>        -0.5427
      3 C2          2.0392   -2.9963   -1.3144 C.3       1 <0>         0.0382
      4 C3          1.7092   -3.0296    0.1817 C.3       1 <0>         0.1252
      5 N2          0.2510   -3.1443    0.3360 N.pl3     1 <0>        -0.6308
      6 C4         -0.6028   -2.1946   -0.3937 C.3       1 <0>         0.1260
      7 C5         -0.1817   -2.1942   -1.8671 C.3       1 <0>         0.0386
      8 C6         -0.3092   -4.1310    1.1549 C.ar      1 <0>         0.2145
      9 C7          0.5055   -5.0888    1.7448 C.ar      1 <0>        -0.1817
     10 C8         -0.0472   -6.0621    2.5532 C.ar      1 <0>        -0.0528
     11 C9         -1.4177   -6.0837    2.7761 C.ar      1 <0>         0.0891
     12 C10        -2.2323   -5.1261    2.1864 C.ar      1 <0>        -0.0870
     13 C11        -1.6790   -4.1493    1.3825 C.ar      1 <0>        -0.1818
     14 N3         -1.9785   -7.0718    3.5956 N.pl3     1 <0>        -0.6191
     15 C12        -1.2779   -7.5416    4.6886 C.ar      1 <0>         0.6114
     16 N4         -0.1271   -6.9594    5.0084 N.ar      1 <0>        -0.5681
     17 C13         0.5804   -7.3724    6.0452 C.ar      1 <0>         0.2826
     18 C14         0.0910   -8.4387    6.8016 C.ar      1 <0>        -0.3454
     19 C15         0.8126   -8.9615    7.9707 C.2       1 <0>         0.4538
     20 O1          1.8742   -8.4829    8.3302 O.2       1 <0>        -0.4870
     21 C16         0.1944  -10.0903    8.6889 C.2       1 <0>        -0.3355
     22 C17        -1.0074  -10.5891    8.2357 C.2       1 <0>         0.2428
     23 N5         -1.6354  -10.0828    7.1624 N.pl3     1 <0>        -0.4645
     24 C18        -1.1330   -9.0346    6.4359 C.ar      1 <0>         0.4654
     25 N6         -1.7812   -8.5518    5.3814 N.ar      1 <0>        -0.5965
     26 C19        -2.9103  -10.6753    6.7506 C.3       1 <0>         0.1252
     27 C20        -4.0751   -9.7002    7.0368 C.3       1 <0>        -0.1181
     28 C21        -4.9877  -10.4616    8.0462 C.3       1 <0>        -0.1022
     29 C22        -5.6299  -11.6067    7.2049 C.3       1 <0>        -0.1234
     30 C23        -4.4651  -12.5818    6.9186 C.3       1 <0>        -0.1152
     31 C24        -3.2288  -11.9341    7.6140 C.3       1 <0>        -0.1224
     32 C25        -3.9129  -11.2665    8.8588 C.3       1 <0>        -0.1329
     33 C26         0.8496  -10.6749    9.8696 C.2       1 <0>         0.5910
     34 O2          0.2837  -11.5371   10.5146 O.2       1 <0>        -0.5627
     35 N7          2.0767  -10.2551   10.2363 N.am      1 <0>        -0.8443
     36 H1          1.1355   -0.9085   -3.7914 H         1 <0>         0.0708
     37 H2          2.7453   -1.5593   -3.3998 H         1 <0>         0.0706
     38 H3          1.4452   -2.6563   -3.9240 H         1 <0>         0.0258
     39 H4          1.7860   -3.9563   -1.7642 H         1 <0>         0.0384
     40 H5          3.1033   -2.8010   -1.4479 H         1 <0>         0.0861
     41 H6          2.1951   -3.8884    0.6448 H         1 <0>         0.0877
     42 H7          2.0562   -2.1104    0.6537 H         1 <0>         0.0711
     43 H8         -1.6454   -2.5013   -0.3109 H         1 <0>         0.0864
     44 H9         -0.4780   -1.1952    0.0231 H         1 <0>         0.0705
     45 H10        -0.7284   -1.4172   -2.4014 H         1 <0>         0.0859
     46 H11        -0.4040   -3.1654   -2.3091 H         1 <0>         0.0383
     47 H12         1.5713   -5.0724    1.5708 H         1 <0>         0.1262
     48 H13         0.5863   -6.8069    3.0119 H         1 <0>         0.1324
     49 H14        -3.2982   -5.1429    2.3598 H         1 <0>         0.1242
     50 H15        -2.3121   -3.4021    0.9272 H         1 <0>         0.1268
     51 H16        -2.8590   -7.4259    3.3951 H         1 <0>         0.4232
     52 H17         1.5154   -6.8963    6.3012 H         1 <0>         0.1897
     53 H18        -1.4599  -11.4164    8.7620 H         1 <0>         0.1919
     54 H19        -2.8828  -10.9371    5.6928 H         1 <0>         0.1091
     55 H20        -3.6992   -8.7800    7.4839 H         1 <0>         0.0697
     56 H21        -4.6223   -9.4822    6.1196 H         1 <0>         0.0845
     57 H22        -5.6707   -9.8447    8.6302 H         1 <0>         0.1062
     58 H23        -6.4116  -12.1061    7.7771 H         1 <0>         0.0696
     59 H24        -6.0334  -11.2125    6.2722 H         1 <0>         0.0690
     60 H25        -4.6742  -13.5606    7.3502 H         1 <0>         0.0771
     61 H26        -4.2959  -12.6670    5.8452 H         1 <0>         0.0704
     62 H27        -2.3897  -12.6010    7.8117 H         1 <0>         0.1135
     63 H28        -3.2301  -10.6088    9.3967 H         1 <0>         0.0726
     64 H29        -4.3681  -12.0042    9.5197 H         1 <0>         0.0851
     65 H30         2.4974   -9.5179    9.7669 H         1 <0>         0.4133
     66 H31         2.5390  -10.6903   10.9696 H         1 <0>         0.4003
@<TRIPOS>BOND
     1    1    2 1
     2    1   36 1
     3    1   37 1
     4    1   38 1
     5    2    7 1
     6    2    3 1
     7    3    4 1
     8    3   39 1
     9    3   40 1
    10    4    5 1
    11    4   41 1
    12    4   42 1
    13    5    6 1
    14    5    8 1
    15    6    7 1
    16    6   43 1
    17    6   44 1
    18    7   45 1
    19    7   46 1
    20    8   13 ar
    21    8    9 ar
    22    9   10 ar
    23    9   47 1
    24   10   11 ar
    25   10   48 1
    26   11   12 ar
    27   11   14 1
    28   12   13 ar
    29   12   49 1
    30   13   50 1
    31   14   15 1
    32   14   51 1
    33   15   25 ar
    34   15   16 ar
    35   16   17 ar
    36   17   18 ar
    37   17   52 1
    38   18   24 ar
    39   18   19 1
    40   19   20 2
    41   19   21 1
    42   21   22 2
    43   21   33 1
    44   22   23 1
    45   22   53 1
    46   23   24 1
    47   23   26 1
    48   24   25 ar
    49   26   31 1
    50   26   27 1
    51   26   54 1
    52   27   28 1
    53   27   55 1
    54   27   56 1
    55   28   32 1
    56   28   29 1
    57   28   57 1
    58   29   30 1
    59   29   58 1
    60   29   59 1
    61   30   31 1
    62   30   60 1
    63   30   61 1
    64   31   32 1
    65   31   62 1
    66   32   63 1
    67   32   64 1
    68   33   34 2
    69   33   35 am
    70   35   65 1
    71   35   66 1
@<TRIPOS>MOLECULE
CHEMBL257665__4
   67    72     0     0     0
SMALL
USER_CHARGES

@<TRIPOS>ATOM
      1 C1          1.4444   -1.6209   -3.1129 C.3       1 <0>        -0.0470
      2 N1          1.1035   -1.7214   -1.6876 N.4       1 <0>        -0.3839
      3 C2          1.8679   -2.8178   -1.0795 C.3       1 <0>        -0.0233
      4 C3          1.6002   -2.8505    0.4289 C.3       1 <0>         0.0993
      5 N2          0.1470   -2.9317    0.6429 N.pl3     1 <0>        -0.6454
      6 C4         -0.7125   -1.9682   -0.0621 C.3       1 <0>         0.1002
      7 C5         -0.3356   -1.9771   -1.5472 C.3       1 <0>        -0.0229
      8 C6         -0.4022   -3.8984    1.4927 C.ar      1 <0>         0.1833
      9 C7          0.4138   -4.8683    2.0604 C.ar      1 <0>        -0.1640
     10 C8         -0.1280   -5.8218    2.8992 C.ar      1 <0>        -0.0599
     11 C9         -1.4890   -5.8113    3.1749 C.ar      1 <0>         0.1262
     12 C10        -2.3050   -4.8416    2.6073 C.ar      1 <0>        -0.0949
     13 C11        -1.7623   -3.8846    1.7730 C.ar      1 <0>        -0.1634
     14 N3         -2.0388   -6.7793    4.0252 N.pl3     1 <0>        -0.6273
     15 C12        -1.3072   -7.2534    5.0959 C.ar      1 <0>         0.6092
     16 N4         -0.1331   -6.6929    5.3657 N.ar      1 <0>        -0.5748
     17 C13         0.6045   -7.1108    6.3794 C.ar      1 <0>         0.2823
     18 C14         0.1219   -8.1590    7.1649 C.ar      1 <0>        -0.3381
     19 C15         0.8763   -8.6858    8.3113 C.2       1 <0>         0.4525
     20 O1          1.9606   -8.2265    8.6253 O.2       1 <0>        -0.4829
     21 C16         0.2622   -9.7940    9.0643 C.2       1 <0>        -0.3303
     22 C17        -0.9662  -10.2713    8.6621 C.2       1 <0>         0.2414
     23 N5         -1.6237   -9.7622    7.6080 N.pl3     1 <0>        -0.4636
     24 C18        -1.1274   -8.7321    6.8520 C.ar      1 <0>         0.4672
     25 N6         -1.8050   -8.2458    5.8177 N.ar      1 <0>        -0.5912
     26 C19        -2.9257  -10.3312    7.2510 C.3       1 <0>         0.1241
     27 C20        -2.8210  -11.1304    5.9319 C.3       1 <0>        -0.1174
     28 C21        -3.2118  -12.5885    6.3225 C.3       1 <0>        -0.1021
     29 C22        -4.7408  -12.5166    6.6196 C.3       1 <0>        -0.1238
     30 C23        -4.8454  -11.7174    7.9386 C.3       1 <0>        -0.1156
     31 C24        -3.3698  -11.3817    8.3142 C.3       1 <0>        -0.1227
     32 C25        -2.6360  -12.6624    7.7807 C.3       1 <0>        -0.1334
     33 C26         0.9493  -10.3810   10.2254 C.2       1 <0>         0.5892
     34 O2          0.3908  -11.2253   10.8998 O.2       1 <0>        -0.5581
     35 N7          2.1976   -9.9833   10.5417 N.am      1 <0>        -0.8437
     36 H1          0.8836   -0.8022   -3.5638 H         1 <0>         0.1250
     37 H2          2.5126   -1.4311   -3.2185 H         1 <0>         0.1251
     38 H3          1.1901   -2.5549   -3.6141 H         1 <0>         0.1214
     39 H4          1.5612   -3.7648   -1.5237 H         1 <0>         0.1322
     40 H5          2.9319   -2.6609   -1.2564 H         1 <0>         0.1408
     41 H6          2.0844   -3.7228    0.8680 H         1 <0>         0.1271
     42 H7          1.9880   -1.9420    0.8895 H         1 <0>         0.0879
     43 H8         -1.7572   -2.2572    0.0524 H         1 <0>         0.1259
     44 H9         -0.5581   -0.9706    0.3490 H         1 <0>         0.0872
     45 H10        -0.8953   -1.2008   -2.0689 H         1 <0>         0.1405
     46 H11        -0.5756   -2.9495   -1.9773 H         1 <0>         0.1321
     47 H12         1.4722   -4.8769    1.8454 H         1 <0>         0.1267
     48 H13         0.5066   -6.5760    3.3406 H         1 <0>         0.1395
     49 H14        -3.3635   -4.8335    2.8217 H         1 <0>         0.1315
     50 H15        -2.3963   -3.1279    1.3348 H         1 <0>         0.1276
     51 H16        -2.9335   -7.1164    3.8618 H         1 <0>         0.4267
     52 H17         1.5584   -6.6525    6.5948 H         1 <0>         0.1912
     53 H18        -1.4157  -11.0836    9.2138 H         1 <0>         0.1944
     54 H19        -3.6725   -9.5423    7.1611 H         1 <0>         0.1097
     55 H20        -3.5174  -10.7356    5.1922 H         1 <0>         0.0841
     56 H21        -1.8009  -11.1000    5.5491 H         1 <0>         0.0683
     57 H22        -2.8855  -13.3695    5.6356 H         1 <0>         0.1069
     58 H23        -5.2598  -11.9938    5.8163 H         1 <0>         0.0687
     59 H24        -5.1503  -13.5185    6.7489 H         1 <0>         0.0713
     60 H25        -5.4159  -10.8016    7.7838 H         1 <0>         0.0704
     61 H26        -5.3063  -12.3263    8.7164 H         1 <0>         0.0789
     62 H27        -3.1929  -11.1103    9.3550 H         1 <0>         0.1150
     63 H28        -2.9571  -13.5644    8.3018 H         1 <0>         0.0870
     64 H29        -1.5520  -12.5498    7.7984 H         1 <0>         0.0716
     65 H30         2.6153   -9.2593   10.0494 H         1 <0>         0.4126
     66 H31         2.6783  -10.4210   11.2616 H         1 <0>         0.4022
     67 H32         1.3366   -0.8553   -1.2254 H         1 <0>         0.4249
@<TRIPOS>BOND
     1    1    2 1
     2    1   36 1
     3    1   37 1
     4    1   38 1
     5    2    7 1
     6    2    3 1
     7    2   67 1
     8    3    4 1
     9    3   39 1
    10    3   40 1
    11    4    5 1
    12    4   41 1
    13    4   42 1
    14    5    6 1
    15    5    8 1
    16    6    7 1
    17    6   43 1
    18    6   44 1
    19    7   45 1
    20    7   46 1
    21    8   13 ar
    22    8    9 ar
    23    9   10 ar
    24    9   47 1
    25   10   11 ar
    26   10   48 1
    27   11   12 ar
    28   11   14 1
    29   12   13 ar
    30   12   49 1
    31   13   50 1
    32   14   15 1
    33   14   51 1
    34   15   25 ar
    35   15   16 ar
    36   16   17 ar
    37   17   18 ar
    38   17   52 1
    39   18   24 ar
    40   18   19 1
    41   19   20 2
    42   19   21 1
    43   21   22 2
    44   21   33 1
    45   22   23 1
    46   22   53 1
    47   23   24 1
    48   23   26 1
    49   24   25 ar
    50   26   31 1
    51   26   27 1
    52   26   54 1
    53   27   28 1
    54   27   55 1
    55   27   56 1
    56   28   32 1
    57   28   29 1
    58   28   57 1
    59   29   30 1
    60   29   58 1
    61   29   59 1
    62   30   31 1
    63   30   60 1
    64   30   61 1
    65   31   32 1
    66   31   62 1
    67   32   63 1
    68   32   64 1
    69   33   34 2
    70   33   35 am
    71   35   65 1
    72   35   66 1
@<TRIPOS>MOLECULE
CHEMBL257665__5
   66    71     0     0     0
SMALL
USER_CHARGES

@<TRIPOS>ATOM
      1 C1          1.6117   -1.4664   -3.1617 C.3       1 <0>         0.0242
      2 N1          1.2079   -1.6832   -1.7660 N.3       1 <0>        -0.5427
      3 C2          1.9899   -2.7656   -1.1538 C.3       1 <0>         0.0382
      4 C3          1.6695   -2.8392    0.3430 C.3       1 <0>         0.1252
      5 N2          0.2123   -2.9571    0.5035 N.pl3     1 <0>        -0.6308
      6 C4         -0.6455   -1.9875   -0.1946 C.3       1 <0>         0.1260
      7 C5         -0.2339   -1.9474   -1.6701 C.3       1 <0>         0.0386
      8 C6         -0.3434   -3.9654    1.2991 C.ar      1 <0>         0.2145
      9 C7          0.4745   -4.9385    1.8585 C.ar      1 <0>        -0.1817
     10 C8         -0.0737   -5.9330    2.6438 C.ar      1 <0>        -0.0527
     11 C9         -1.4429   -5.9606    2.8739 C.ar      1 <0>         0.0891
     12 C10        -2.2608   -4.9876    2.3145 C.ar      1 <0>        -0.0871
     13 C11        -1.7119   -3.9897    1.5339 C.ar      1 <0>        -0.1817
     14 N3         -1.9992   -6.9702    3.6699 N.pl3     1 <0>        -0.6191
     15 C12        -1.2929   -7.4682    4.7467 C.ar      1 <0>         0.6114
     16 N4         -0.1407   -6.8940    5.0758 N.ar      1 <0>        -0.5681
     17 C13         0.5721   -7.3336    6.0980 C.ar      1 <0>         0.2826
     18 C14         0.0869   -8.4197    6.8286 C.ar      1 <0>        -0.3454
     19 C15         0.8146   -8.9726    7.9800 C.2       1 <0>         0.4538
     20 O1          1.8778   -8.5030    8.3465 O.2       1 <0>        -0.4870
     21 C16         0.2003  -10.1200    8.6715 C.2       1 <0>        -0.3355
     22 C17        -1.0035  -10.6073    8.2114 C.2       1 <0>         0.2428
     23 N5         -1.6371  -10.0735    7.1548 N.pl3     1 <0>        -0.4644
     24 C18        -1.1387   -9.0063    6.4536 C.ar      1 <0>         0.4653
     25 N6         -1.7924   -8.4964    5.4153 N.ar      1 <0>        -0.5965
     26 C19        -2.9139  -10.6556    6.7341 C.3       1 <0>         0.1252
     27 C20        -2.7488  -11.4036    5.3914 C.3       1 <0>        -0.1182
     28 C21        -3.1204  -12.8827    5.7159 C.3       1 <0>        -0.1021
     29 C22        -4.6595  -12.8532    5.9640 C.3       1 <0>        -0.1235
     30 C23        -4.8246  -12.1052    7.3066 C.3       1 <0>        -0.1153
     31 C24        -3.3698  -11.7533    7.7434 C.3       1 <0>        -0.1225
     32 C25        -2.5913  -12.9983    7.1890 C.3       1 <0>        -0.1329
     33 C26         0.8616  -10.7351    9.8331 C.2       1 <0>         0.5910
     34 O2          0.2998  -11.6148   10.4576 O.2       1 <0>        -0.5628
     35 N7          2.0899  -10.3237   10.2052 N.am      1 <0>        -0.8443
     36 H1          1.0718   -0.6109   -3.5674 H         1 <0>         0.0708
     37 H2          2.6836   -1.2730   -3.2040 H         1 <0>         0.0706
     38 H3          1.3793   -2.3546   -3.7493 H         1 <0>         0.0258
     39 H4          1.7331   -3.7129   -1.6277 H         1 <0>         0.0384
     40 H5          3.0532   -2.5674   -1.2888 H         1 <0>         0.0861
     41 H6          2.1577   -3.7105    0.7795 H         1 <0>         0.0877
     42 H7          2.0203   -1.9333    0.8375 H         1 <0>         0.0711
     43 H8         -1.6878   -2.2958   -0.1134 H         1 <0>         0.0864
     44 H9         -0.5173   -0.9998    0.2483 H         1 <0>         0.0705
     45 H10        -0.7835   -1.1559   -2.1796 H         1 <0>         0.0859
     46 H11        -0.4598   -2.9062   -2.1369 H         1 <0>         0.0383
     47 H12         1.5393   -4.9175    1.6790 H         1 <0>         0.1262
     48 H13         0.5623   -6.6898    3.0788 H         1 <0>         0.1323
     49 H14        -3.3256   -5.0091    2.4935 H         1 <0>         0.1242
     50 H15        -2.3475   -3.2307    1.1022 H         1 <0>         0.1269
     51 H16        -2.8805   -7.3194    3.4645 H         1 <0>         0.4232
     52 H17         1.5083   -6.8640    6.3616 H         1 <0>         0.1897
     53 H18        -1.4531  -11.4484    8.7181 H         1 <0>         0.1919
     54 H19        -3.6744   -9.8795    6.6477 H         1 <0>         0.1093
     55 H20        -3.4289  -10.9962    4.6434 H         1 <0>         0.0846
     56 H21        -1.7176  -11.3382    5.0444 H         1 <0>         0.0694
     57 H22        -2.7548  -13.6311    5.0127 H         1 <0>         0.1061
     58 H23        -5.1631  -12.3119    5.1630 H         1 <0>         0.0690
     59 H24        -5.0511  -13.8673    6.0432 H         1 <0>         0.0697
     60 H25        -5.4095  -11.1962    7.1658 H         1 <0>         0.0705
     61 H26        -5.2975  -12.7516    8.0460 H         1 <0>         0.0772
     62 H27        -3.2331  -11.5166    8.7986 H         1 <0>         0.1142
     63 H28        -2.9097  -13.9251    7.6662 H         1 <0>         0.0851
     64 H29        -1.5111  -12.8641    7.2472 H         1 <0>         0.0718
     65 H30         2.5077   -9.5737    9.7536 H         1 <0>         0.4133
     66 H31         2.5562  -10.7775   10.9246 H         1 <0>         0.4003
@<TRIPOS>BOND
     1    1    2 1
     2    1   36 1
     3    1   37 1
     4    1   38 1
     5    2    7 1
     6    2    3 1
     7    3    4 1
     8    3   39 1
     9    3   40 1
    10    4    5 1
    11    4   41 1
    12    4   42 1
    13    5    6 1
    14    5    8 1
    15    6    7 1
    16    6   43 1
    17    6   44 1
    18    7   45 1
    19    7   46 1
    20    8   13 ar
    21    8    9 ar
    22    9   10 ar
    23    9   47 1
    24   10   11 ar
    25   10   48 1
    26   11   12 ar
    27   11   14 1
    28   12   13 ar
    29   12   49 1
    30   13   50 1
    31   14   15 1
    32   14   51 1
    33   15   25 ar
    34   15   16 ar
    35   16   17 ar
    36   17   18 ar
    37   17   52 1
    38   18   24 ar
    39   18   19 1
    40   19   20 2
    41   19   21 1
    42   21   22 2
    43   21   33 1
    44   22   23 1
    45   22   53 1
    46   23   24 1
    47   23   26 1
    48   24   25 ar
    49   26   31 1
    50   26   27 1
    51   26   54 1
    52   27   28 1
    53   27   55 1
    54   27   56 1
    55   28   32 1
    56   28   29 1
    57   28   57 1
    58   29   30 1
    59   29   58 1
    60   29   59 1
    61   30   31 1
    62   30   60 1
    63   30   61 1
    64   31   32 1
    65   31   62 1
    66   32   63 1
    67   32   64 1
    68   33   34 2
    69   33   35 am
    70   35   65 1
    71   35   66 1
@<TRIPOS>MOLECULE
CHEMBL257665__6
   67    72     0     0     0
SMALL
USER_CHARGES

@<TRIPOS>ATOM
      1 C1         -1.3695    2.0731    0.6051 C.3       1 <0>        -0.0470
      2 N1         -1.4118    1.4100    1.9152 N.4       1 <0>        -0.3839
      3 C2         -0.4625    0.2899    1.9258 C.3       1 <0>        -0.0234
      4 C3         -0.4218   -0.3307    3.3262 C.3       1 <0>         0.0993
      5 N2         -1.7933   -0.6935    3.7155 N.pl3     1 <0>        -0.6454
      6 C4         -2.8449    0.3262    3.5803 C.3       1 <0>         0.1002
      7 C5         -2.7712    0.9158    2.1680 C.3       1 <0>        -0.0229
      8 C6         -2.0892   -1.9724    4.2002 C.ar      1 <0>         0.1829
      9 C7         -1.1074   -2.9546    4.2128 C.ar      1 <0>        -0.1640
     10 C8         -1.3993   -4.2164    4.6915 C.ar      1 <0>        -0.0605
     11 C9         -2.6746   -4.5034    5.1599 C.ar      1 <0>         0.1269
     12 C10        -3.6563   -3.5214    5.1474 C.ar      1 <0>        -0.0954
     13 C11        -3.3630   -2.2579    4.6740 C.ar      1 <0>        -0.1633
     14 N3         -2.9709   -5.7838    5.6447 N.pl3     1 <0>        -0.6272
     15 C12        -2.0033   -6.5119    6.3082 C.ar      1 <0>         0.6064
     16 N4         -0.8403   -5.9297    6.5807 N.ar      1 <0>        -0.5752
     17 C13         0.1174   -6.5841    7.2136 C.ar      1 <0>         0.2826
     18 C14        -0.1193   -7.9068    7.5920 C.ar      1 <0>        -0.3398
     19 C15         0.8898   -8.7079    8.2996 C.2       1 <0>         0.4523
     20 O1          1.9812   -8.2479    8.5870 O.2       1 <0>        -0.4831
     21 C16         0.5222  -10.0924    8.6465 C.2       1 <0>        -0.3289
     22 C17        -0.7267  -10.5568    8.2958 C.2       1 <0>         0.2416
     23 N5         -1.6210   -9.7923    7.6490 N.pl3     1 <0>        -0.4627
     24 C18        -1.3636   -8.4952    7.2880 C.ar      1 <0>         0.4725
     25 N6         -2.2718   -7.7619    6.6534 N.ar      1 <0>        -0.5848
     26 C19        -2.9261  -10.3682    7.3152 C.3       1 <0>         0.1167
     27 C20        -3.2852  -11.4993    8.3057 C.3       1 <0>        -0.1459
     28 C21        -4.5950  -11.0149    8.9992 C.3       1 <0>        -0.0976
     29 C22        -4.1421   -9.8282    9.9035 C.3       1 <0>        -0.1265
     30 C23        -3.7830   -8.6970    8.9130 C.3       1 <0>        -0.1189
     31 C24        -4.0528   -9.3069    7.5036 C.3       1 <0>        -0.0848
     32 C25        -5.2772  -10.2366    7.8193 C.3       1 <0>        -0.1277
     33 C26         1.4728  -10.9640    9.3547 C.2       1 <0>         0.5893
     34 O2          1.1236  -12.0673    9.7292 O.2       1 <0>        -0.5587
     35 N7          2.7305  -10.5398    9.5885 N.am      1 <0>        -0.8436
     36 H1         -2.0680    2.9098    0.5986 H         1 <0>         0.1250
     37 H2         -0.3608    2.4404    0.4162 H         1 <0>         0.1251
     38 H3         -1.6482    1.3610   -0.1717 H         1 <0>         0.1214
     39 H4         -0.7801   -0.4626    1.2039 H         1 <0>         0.1322
     40 H5          0.5305    0.6525    1.6600 H         1 <0>         0.1407
     41 H6          0.2035   -1.2234    3.3132 H         1 <0>         0.1271
     42 H7         -0.0188    0.3921    4.0355 H         1 <0>         0.0878
     43 H8         -3.8217   -0.1321    3.7354 H         1 <0>         0.1259
     44 H9         -2.6866    1.1154    4.3154 H         1 <0>         0.0871
     45 H10        -3.4796    1.7396    2.0806 H         1 <0>         0.1405
     46 H11        -3.0190    0.1444    1.4388 H         1 <0>         0.1321
     47 H12        -0.1157   -2.7316    3.8477 H         1 <0>         0.1264
     48 H13        -0.6358   -4.9802    4.7012 H         1 <0>         0.1401
     49 H14        -4.6482   -3.7447    5.5118 H         1 <0>         0.1314
     50 H15        -4.1254   -1.4930    4.6681 H         1 <0>         0.1274
     51 H16        -3.8559   -6.1590    5.5144 H         1 <0>         0.4263
     52 H17         1.0613   -6.1070    7.4326 H         1 <0>         0.1904
     53 H18        -0.9956  -11.5715    8.5498 H         1 <0>         0.1932
     54 H19        -2.9245  -10.7431    6.2917 H         1 <0>         0.1027
     55 H20        -3.4615  -12.4319    7.7697 H         1 <0>         0.0908
     56 H21        -2.4907  -11.6270    9.0410 H         1 <0>         0.0848
     57 H22        -5.1958  -11.7891    9.4766 H         1 <0>         0.1093
     58 H23        -4.9565   -9.5164   10.5574 H         1 <0>         0.0691
     59 H24        -3.2684  -10.1102   10.4912 H         1 <0>         0.0641
     60 H25        -4.4208   -7.8291    9.0800 H         1 <0>         0.0654
     61 H26        -2.7328   -8.4229    9.0138 H         1 <0>         0.0523
     62 H27        -4.1743   -8.5915    6.6902 H         1 <0>         0.1275
     63 H28        -5.5191  -10.8923    6.9828 H         1 <0>         0.0758
     64 H29        -6.1462   -9.6691    8.1523 H         1 <0>         0.0789
     65 H30         2.9882   -9.6341    9.3554 H         1 <0>         0.4126
     66 H31         3.3781  -11.1401    9.9900 H         1 <0>         0.4022
     67 H32        -1.1565    2.0708    2.6337 H         1 <0>         0.4249
@<TRIPOS>BOND
     1    1    2 1
     2    1   36 1
     3    1   37 1
     4    1   38 1
     5    2    7 1
     6    2    3 1
     7    2   67 1
     8    3    4 1
     9    3   39 1
    10    3   40 1
    11    4    5 1
    12    4   41 1
    13    4   42 1
    14    5    6 1
    15    5    8 1
    16    6    7 1
    17    6   43 1
    18    6   44 1
    19    7   45 1
    20    7   46 1
    21    8   13 ar
    22    8    9 ar
    23    9   10 ar
    24    9   47 1
    25   10   11 ar
    26   10   48 1
    27   11   12 ar
    28   11   14 1
    29   12   13 ar
    30   12   49 1
    31   13   50 1
    32   14   15 1
    33   14   51 1
    34   15   25 ar
    35   15   16 ar
    36   16   17 ar
    37   17   18 ar
    38   17   52 1
    39   18   24 ar
    40   18   19 1
    41   19   20 2
    42   19   21 1
    43   21   22 2
    44   21   33 1
    45   22   23 1
    46   22   53 1
    47   23   24 1
    48   23   26 1
    49   24   25 ar
    50   26   31 1
    51   26   27 1
    52   26   54 1
    53   27   28 1
    54   27   55 1
    55   27   56 1
    56   28   32 1
    57   28   29 1
    58   28   57 1
    59   29   30 1
    60   29   58 1
    61   29   59 1
    62   30   31 1
    63   30   60 1
    64   30   61 1
    65   31   32 1
    66   31   62 1
    67   32   63 1
    68   32   64 1
    69   33   34 2
    70   33   35 am
    71   35   65 1
    72   35   66 1
@<TRIPOS>MOLECULE
CHEMBL257665__7
   66    71     0     0     0
SMALL
USER_CHARGES

@<TRIPOS>ATOM
      1 C1         -1.4210    2.0288    0.5914 C.3       1 <0>         0.0242
      2 N1         -1.5062    1.2668    1.8444 N.3       1 <0>        -0.5427
      3 C2         -0.5161    0.1818    1.8690 C.3       1 <0>         0.0382
      4 C3         -0.5128   -0.4708    3.2555 C.3       1 <0>         0.1252
      5 N2         -1.8878   -0.8760    3.5846 N.pl3     1 <0>        -0.6308
      6 C4         -2.9587    0.1233    3.4506 C.3       1 <0>         0.1261
      7 C5         -2.8657    0.7525    2.0564 C.3       1 <0>         0.0386
      8 C6         -2.1698   -2.1779    4.0132 C.ar      1 <0>         0.2142
      9 C7         -1.1667   -3.1382    4.0235 C.ar      1 <0>        -0.1817
     10 C8         -1.4449   -4.4226    4.4469 C.ar      1 <0>        -0.0533
     11 C9         -2.7279   -4.7543    4.8620 C.ar      1 <0>         0.0897
     12 C10        -3.7310   -3.7941    4.8518 C.ar      1 <0>        -0.0875
     13 C11        -3.4515   -2.5082    4.4338 C.ar      1 <0>        -0.1817
     14 N3         -3.0103   -6.0577    5.2907 N.pl3     1 <0>        -0.6191
     15 C12        -2.0483   -6.7881    5.9598 C.ar      1 <0>         0.6087
     16 N4         -0.9086   -6.1909    6.2915 N.ar      1 <0>        -0.5685
     17 C13         0.0429   -6.8469    6.9323 C.ar      1 <0>         0.2829
     18 C14        -0.1755   -8.1873    7.2552 C.ar      1 <0>        -0.3469
     19 C15         0.8281   -8.9915    7.9671 C.2       1 <0>         0.4536
     20 O1          1.8987   -8.5186    8.3070 O.2       1 <0>        -0.4872
     21 C16         0.4813  -10.3954    8.2519 C.2       1 <0>        -0.3341
     22 C17        -0.7445  -10.8738    7.8433 C.2       1 <0>         0.2431
     23 N5         -1.6346  -10.1060    7.1947 N.pl3     1 <0>        -0.4634
     24 C18        -1.3954   -8.7913    6.8890 C.ar      1 <0>         0.4705
     25 N6         -2.2991   -8.0554    6.2510 N.ar      1 <0>        -0.5904
     26 C19        -2.9145  -10.6977    6.7972 C.3       1 <0>         0.1174
     27 C20        -3.2797  -11.8715    7.7343 C.3       1 <0>        -0.1450
     28 C21        -4.6223  -11.4412    8.4003 C.3       1 <0>        -0.0981
     29 C22        -4.2265  -10.2784    9.3608 C.3       1 <0>        -0.1256
     30 C23        -3.8612   -9.1046    8.4237 C.3       1 <0>        -0.1195
     31 C24        -4.0708   -9.6687    6.9852 C.3       1 <0>        -0.0841
     32 C25        -5.2832  -10.6357    7.2266 C.3       1 <0>        -0.1278
     33 C26         1.4282  -11.2712    8.9600 C.2       1 <0>         0.5910
     34 O2          1.0924  -12.3948    9.2831 O.2       1 <0>        -0.5634
     35 N7          2.6676  -10.8285    9.2505 N.am      1 <0>        -0.8442
     36 H1         -2.1112    2.8715    0.6310 H         1 <0>         0.0707
     37 H2         -0.4040    2.3980    0.4591 H         1 <0>         0.0705
     38 H3         -1.6846    1.3823   -0.2457 H         1 <0>         0.0258
     39 H4         -0.7746   -0.5636    1.1169 H         1 <0>         0.0384
     40 H5          0.4729    0.5869    1.6553 H         1 <0>         0.0861
     41 H6          0.1350   -1.3474    3.2461 H         1 <0>         0.0877
     42 H7         -0.1547    0.2445    3.9960 H         1 <0>         0.0710
     43 H8         -3.9280   -0.3605    3.5701 H         1 <0>         0.0863
     44 H9         -2.8357    0.8957    4.2098 H         1 <0>         0.0704
     45 H10        -3.5807    1.5715    1.9786 H         1 <0>         0.0859
     46 H11        -3.0915   -0.0009    1.3017 H         1 <0>         0.0383
     47 H12        -0.1690   -2.8805    3.7000 H         1 <0>         0.1259
     48 H13        -0.6648   -5.1695    4.4549 H         1 <0>         0.1328
     49 H14        -4.7288   -4.0521    5.1747 H         1 <0>         0.1240
     50 H15        -4.2307   -1.7603    4.4297 H         1 <0>         0.1266
     51 H16        -3.8817   -6.4471    5.1176 H         1 <0>         0.4227
     52 H17         0.9678   -6.3576    7.1996 H         1 <0>         0.1888
     53 H18        -0.9981  -11.9027    8.0518 H         1 <0>         0.1906
     54 H19        -2.8708  -11.0353    5.7617 H         1 <0>         0.1014
     55 H20        -3.4169  -12.7877    7.1600 H         1 <0>         0.0889
     56 H21        -2.5070  -12.0084    8.4908 H         1 <0>         0.0841
     57 H22        -5.2204  -12.2450    8.8296 H         1 <0>         0.1074
     58 H23        -5.0688  -10.0082    9.9977 H         1 <0>         0.0679
     59 H24        -3.3663  -10.5624    9.9671 H         1 <0>         0.0632
     60 H25        -4.5240   -8.2573    8.5998 H         1 <0>         0.0659
     61 H26        -2.8215   -8.8115    8.5692 H         1 <0>         0.0540
     62 H27        -4.1820   -8.9271    6.1941 H         1 <0>         0.1293
     63 H28        -5.4825  -11.2657    6.3597 H         1 <0>         0.0747
     64 H29        -6.1755  -10.0997    7.5502 H         1 <0>         0.0783
     65 H30         2.9118   -9.9096    9.0584 H         1 <0>         0.4133
     66 H31         3.3154  -11.4288    9.6516 H         1 <0>         0.4004
@<TRIPOS>BOND
     1    1    2 1
     2    1   36 1
     3    1   37 1
     4    1   38 1
     5    2    7 1
     6    2    3 1
     7    3    4 1
     8    3   39 1
     9    3   40 1
    10    4    5 1
    11    4   41 1
    12    4   42 1
    13    5    6 1
    14    5    8 1
    15    6    7 1
    16    6   43 1
    17    6   44 1
    18    7   45 1
    19    7   46 1
    20    8   13 ar
    21    8    9 ar
    22    9   10 ar
    23    9   47 1
    24   10   11 ar
    25   10   48 1
    26   11   12 ar
    27   11   14 1
    28   12   13 ar
    29   12   49 1
    30   13   50 1
    31   14   15 1
    32   14   51 1
    33   15   25 ar
    34   15   16 ar
    35   16   17 ar
    36   17   18 ar
    37   17   52 1
    38   18   24 ar
    39   18   19 1
    40   19   20 2
    41   19   21 1
    42   21   22 2
    43   21   33 1
    44   22   23 1
    45   22   53 1
    46   23   24 1
    47   23   26 1
    48   24   25 ar
    49   26   31 1
    50   26   27 1
    51   26   54 1
    52   27   28 1
    53   27   55 1
    54   27   56 1
    55   28   32 1
    56   28   29 1
    57   28   57 1
    58   29   30 1
    59   29   58 1
    60   29   59 1
    61   30   31 1
    62   30   60 1
    63   30   61 1
    64   31   32 1
    65   31   62 1
    66   32   63 1
    67   32   64 1
    68   33   34 2
    69   33   35 am
    70   35   65 1
    71   35   66 1
@<TRIPOS>MOLECULE
CHEMBL273193
   61    66     0     0     0
SMALL
USER_CHARGES

@<TRIPOS>ATOM
      1 C1          0.9756   -0.2252   -0.9202 C.ar      1 <0>        -0.0983
      2 C2          2.1606    0.4370   -0.6661 C.ar      1 <0>        -0.1050
      3 C3          2.4673    1.6000   -1.3610 C.ar      1 <0>         0.1575
      4 C4          1.5804    2.0930   -2.3095 C.ar      1 <0>        -0.1388
      5 C5          0.3971    1.4259   -2.5588 C.ar      1 <0>        -0.0911
      6 C6          0.0948    0.2684   -1.8652 C.ar      1 <0>        -0.1029
      7 C7         -1.1974   -0.4569   -2.1398 C.3       1 <0>        -0.0851
      8 C8         -2.2903    0.0798   -1.2132 C.3       1 <0>         0.0978
      9 H1         -2.3752    1.1627   -1.3027 H         1 <0>         0.1016
     10 C9         -3.6462   -0.6053   -1.5062 C.3       1 <0>         0.0414
     11 O1         -4.2038   -0.7447   -0.1849 O.3       1 <0>        -0.3271
     12 C10        -3.1868   -0.7981    0.6917 C.2       1 <0>         0.6440
     13 O2         -3.2949   -1.2335    1.8210 O.2       1 <0>        -0.5149
     14 N1         -2.0325   -0.3133    0.1863 N.am      1 <0>        -0.7345
     15 N2          3.6659    2.2731   -1.1059 N.pl3     1 <0>        -0.6247
     16 C11         4.7953    1.5618   -0.7501 C.ar      1 <0>         0.6108
     17 N3          4.7452    0.2342   -0.7651 N.ar      1 <0>        -0.5663
     18 C12         5.7988   -0.4911   -0.4332 C.ar      1 <0>         0.2830
     19 C13         6.9717    0.1703   -0.0647 C.ar      1 <0>        -0.3368
     20 C14         8.1899   -0.5579    0.3184 C.2       1 <0>         0.4544
     21 O3          8.2260   -1.7761    0.3300 O.2       1 <0>        -0.4787
     22 C15         9.3657    0.2504    0.6873 C.2       1 <0>        -0.3244
     23 C16         9.2660    1.6242    0.6553 C.2       1 <0>         0.2531
     24 N4          8.1326    2.2537    0.2989 N.pl3     1 <0>        -0.4245
     25 C17         6.9917    1.5795   -0.0592 C.ar      1 <0>         0.4657
     26 N5          5.8879    2.2291   -0.4125 N.ar      1 <0>        -0.5849
     27 C18         8.1154    3.6536    0.2927 C.ar      1 <0>         0.0929
     28 C19         8.8651    4.3555   -0.6424 C.ar      1 <0>        -0.0999
     29 C20         8.8440    5.7350   -0.6442 C.ar      1 <0>        -0.0947
     30 C21         8.0786    6.4239    0.2830 C.ar      1 <0>        -0.0751
     31 C22         7.3312    5.7280    1.2153 C.ar      1 <0>        -0.0855
     32 C23         7.3449    4.3442    1.2170 C.ar      1 <0>        -0.0679
     33 C24         6.5905    6.7015    2.1070 C.3       1 <0>        -0.0833
     34 C25         7.3015    8.0563    1.9045 C.3       1 <0>        -0.1211
     35 C26         7.8903    7.9125    0.4851 C.3       1 <0>        -0.0869
     36 C27        10.6251   -0.3990    1.0838 C.2       1 <0>         0.5909
     37 O4         11.5553    0.2731    1.4872 O.2       1 <0>        -0.5585
     38 N6         10.7481   -1.7386    1.0001 N.am      1 <0>        -0.8422
     39 H2          0.7386   -1.1319   -0.3835 H         1 <0>         0.1265
     40 H3          2.8478    0.0513    0.0723 H         1 <0>         0.1380
     41 H4          1.8157    2.9971   -2.8513 H         1 <0>         0.1271
     42 H5         -0.2931    1.8089   -3.2959 H         1 <0>         0.1296
     43 H6         -1.4902   -0.2973   -3.1775 H         1 <0>         0.0963
     44 H7         -1.0606   -1.5233   -1.9607 H         1 <0>         0.0865
     45 H8         -4.2762    0.0293   -2.1295 H         1 <0>         0.1229
     46 H9         -3.4974   -1.5800   -1.9707 H         1 <0>         0.0966
     47 H10        -1.1866   -0.2384    0.6549 H         1 <0>         0.4347
     48 H11         3.7043    3.2396   -1.1787 H         1 <0>         0.4269
     49 H12         5.7535   -1.5700   -0.4464 H         1 <0>         0.1938
     50 H13        10.1279    2.2159    0.9261 H         1 <0>         0.1895
     51 H14         9.4636    3.8225   -1.3663 H         1 <0>         0.1330
     52 H15         9.4270    6.2805   -1.3715 H         1 <0>         0.1336
     53 H16         6.7577    3.8006    1.9423 H         1 <0>         0.1238
     54 H17         5.5461    6.7733    1.8031 H         1 <0>         0.0840
     55 H18         6.6613    6.3892    3.1489 H         1 <0>         0.0785
     56 H19         6.5874    8.8787    1.9462 H         1 <0>         0.0809
     57 H20         8.0938    8.1919    2.6407 H         1 <0>         0.0758
     58 H21         8.8489    8.4273    0.4193 H         1 <0>         0.0811
     59 H22         7.1953    8.3097   -0.2547 H         1 <0>         0.0858
     60 H23        10.0346   -2.2677    0.6104 H         1 <0>         0.4130
     61 H24        11.5501   -2.1735    1.3295 H         1 <0>         0.4021
@<TRIPOS>BOND
     1    1    6 ar
     2    1    2 ar
     3    1   39 1
     4    2    3 ar
     5    2   40 1
     6    3    4 ar
     7    3   15 1
     8    4    5 ar
     9    4   41 1
    10    5    6 ar
    11    5   42 1
    12    6    7 1
    13    7    8 1
    14    7   43 1
    15    7   44 1
    16    8    9 1
    17    8   14 1
    18    8   10 1
    19   10   11 1
    20   10   45 1
    21   10   46 1
    22   11   12 1
    23   12   13 2
    24   12   14 am
    25   14   47 1
    26   15   16 1
    27   15   48 1
    28   16   26 ar
    29   16   17 ar
    30   17   18 ar
    31   18   19 ar
    32   18   49 1
    33   19   25 ar
    34   19   20 1
    35   20   21 2
    36   20   22 1
    37   22   23 2
    38   22   36 1
    39   23   24 1
    40   23   50 1
    41   24   25 1
    42   24   27 1
    43   25   26 ar
    44   27   32 ar
    45   27   28 ar
    46   28   29 ar
    47   28   51 1
    48   29   30 ar
    49   29   52 1
    50   30   35 1
    51   30   31 ar
    52   31   32 ar
    53   31   33 1
    54   32   53 1
    55   33   34 1
    56   33   54 1
    57   33   55 1
    58   34   35 1
    59   34   56 1
    60   34   57 1
    61   35   58 1
    62   35   59 1
    63   36   37 2
    64   36   38 am
    65   38   60 1
    66   38   61 1
@<TRIPOS>MOLECULE
CHEMBL496129
   68    72     0     0     0
SMALL
USER_CHARGES

@<TRIPOS>ATOM
      1 C1          0.0047    1.5025    0.0582 C.3       1 <0>        -0.1202
      2 C2          0.0198   -0.0042    0.0314 C.ar      1 <0>        -0.0779
      3 C3         -0.5713   -0.7187    1.0544 C.ar      1 <0>        -0.1001
      4 C4         -0.5596   -2.1003    1.0345 C.ar      1 <0>        -0.1364
      5 C5          0.0471   -2.7789   -0.0160 C.ar      1 <0>         0.1304
      6 C6          0.6426   -2.0690   -1.0474 C.ar      1 <0>        -0.1000
      7 C7          0.6257   -0.6763   -1.0291 C.ar      1 <0>        -0.0297
      8 C8          1.2559    0.0896   -2.1318 C.ar      1 <0>        -0.0411
      9 C9          0.5520    1.1183   -2.7573 C.ar      1 <0>        -0.1055
     10 C10         1.1370    1.8297   -3.7813 C.ar      1 <0>        -0.0832
     11 C11         2.4339    1.5213   -4.1927 C.ar      1 <0>        -0.0195
     12 C12         3.1379    0.4924   -3.5666 C.ar      1 <0>        -0.1011
     13 C13         2.5543   -0.2154   -2.5393 C.ar      1 <0>        -0.1041
     14 C14         3.0634    2.2863   -5.2950 C.2       1 <0>         0.1379
     15 C15         4.3315    1.9870   -5.7073 C.2       1 <0>        -0.2328
     16 S1          4.5509    3.1894   -7.0120 S.3       1 <0>        -0.0127
     17 C16         2.9454    3.9633   -6.8784 C.2       1 <0>         0.3873
     18 N1          2.3976    3.2690   -5.8982 N.2       1 <0>        -0.5720
     19 N2          2.4146    5.0114   -7.6123 N.pl3     1 <0>        -0.7952
     20 N3          0.0572   -4.1774   -0.0323 N.am      1 <0>        -0.6664
     21 C17        -0.0419   -4.8384   -1.2026 C.2       1 <0>         0.5531
     22 O1         -0.0554   -4.2214   -2.2500 O.2       1 <0>        -0.5064
     23 C18        -0.1343   -6.3136   -1.2127 C.ar      1 <0>        -0.1220
     24 C19        -0.1248   -7.0248   -0.0116 C.ar      1 <0>        -0.0844
     25 C20        -0.2113   -8.4015   -0.0281 C.ar      1 <0>        -0.1244
     26 C21        -0.3067   -9.0774   -1.2316 C.ar      1 <0>        -0.0688
     27 C22        -0.3166   -8.3786   -2.4257 C.ar      1 <0>        -0.0991
     28 C23        -0.2371   -7.0013   -2.4231 C.ar      1 <0>        -0.0533
     29 C24        -0.3998  -10.5815   -1.2420 C.3       1 <0>         0.0938
     30 N4         -1.8111  -10.9852   -1.1835 N.3       1 <0>        -0.5346
     31 C25        -2.4128  -10.6117    0.1043 C.3       1 <0>         0.0185
     32 C26        -3.8944  -10.9949    0.1019 C.3       1 <0>        -0.0025
     33 N5         -4.0258  -12.4411   -0.1185 N.4       1 <0>        -0.3883
     34 C27        -3.4424  -12.7950   -1.4192 C.3       1 <0>        -0.0025
     35 C28        -1.9572  -12.4268   -1.4294 C.3       1 <0>         0.0250
     36 C29        -5.4473  -12.8113   -0.1027 C.3       1 <0>        -0.0460
     37 H1         -0.8912    1.8658   -0.4452 H         1 <0>         0.0732
     38 H2          0.0058    1.8475    1.0922 H         1 <0>         0.0677
     39 H3          0.8886    1.8838   -0.4530 H         1 <0>         0.0733
     40 H4         -1.0440   -0.1961    1.8728 H         1 <0>         0.1305
     41 H5         -1.0229   -2.6544    1.8375 H         1 <0>         0.1252
     42 H6          1.1146   -2.5942   -1.8645 H         1 <0>         0.1418
     43 H7         -0.4520    1.3570   -2.4388 H         1 <0>         0.1267
     44 H8          0.5916    2.6259   -4.2661 H         1 <0>         0.1348
     45 H9          4.1418    0.2533   -3.8851 H         1 <0>         0.1277
     46 H10         3.1007   -1.0094   -2.0521 H         1 <0>         0.1251
     47 H11         5.0134    1.2322   -5.3445 H         1 <0>         0.1963
     48 H12         2.9399    5.4273   -8.3137 H         1 <0>         0.4226
     49 H13         1.5176    5.3294   -7.4248 H         1 <0>         0.4184
     50 H14         0.1356   -4.6715    0.7987 H         1 <0>         0.4088
     51 H15        -0.0496   -6.4985    0.9284 H         1 <0>         0.1293
     52 H16        -0.2040   -8.9530    0.9004 H         1 <0>         0.1267
     53 H17        -0.3910   -8.9122   -3.3617 H         1 <0>         0.1342
     54 H18        -0.2494   -6.4567   -3.3557 H         1 <0>         0.1425
     55 H19         0.0508  -10.9672   -2.1564 H         1 <0>         0.1010
     56 H20         0.1293  -10.9842   -0.3783 H         1 <0>         0.0597
     57 H21        -1.9023  -11.1383    0.9106 H         1 <0>         0.0619
     58 H22        -2.3156   -9.5363    0.2529 H         1 <0>         0.1262
     59 H23        -4.3393  -10.7317    1.0615 H         1 <0>         0.1359
     60 H24        -4.4073  -10.4577   -0.6959 H         1 <0>         0.1378
     61 H25        -3.5523  -13.8664   -1.5873 H         1 <0>         0.1368
     62 H26        -3.9576  -12.2486   -2.2092 H         1 <0>         0.1381
     63 H27        -1.5274  -12.6756   -2.3998 H         1 <0>         0.1253
     64 H28        -1.4391  -12.9833   -0.6484 H         1 <0>         0.0622
     65 H29        -5.9715  -12.2741   -0.8932 H         1 <0>         0.1233
     66 H30        -5.5451  -13.8845   -0.2662 H         1 <0>         0.1246
     67 H31        -5.8802  -12.5500    0.8629 H         1 <0>         0.1243
     68 H32        -3.5411  -12.9381    0.6137 H         1 <0>         0.4223
@<TRIPOS>BOND
     1    1    2 1
     2    1   37 1
     3    1   38 1
     4    1   39 1
     5    2    7 ar
     6    2    3 ar
     7    3    4 ar
     8    3   40 1
     9    4    5 ar
    10    4   41 1
    11    5    6 ar
    12    5   20 1
    13    6    7 ar
    14    6   42 1
    15    7    8 1
    16    8   13 ar
    17    8    9 ar
    18    9   10 ar
    19    9   43 1
    20   10   11 ar
    21   10   44 1
    22   11   12 ar
    23   11   14 1
    24   12   13 ar
    25   12   45 1
    26   13   46 1
    27   14   18 1
    28   14   15 2
    29   15   16 1
    30   15   47 1
    31   16   17 1
    32   17   18 2
    33   17   19 1
    34   19   48 1
    35   19   49 1
    36   20   21 am
    37   20   50 1
    38   21   22 2
    39   21   23 1
    40   23   28 ar
    41   23   24 ar
    42   24   25 ar
    43   24   51 1
    44   25   26 ar
    45   25   52 1
    46   26   27 ar
    47   26   29 1
    48   27   28 ar
    49   27   53 1
    50   28   54 1
    51   29   30 1
    52   29   55 1
    53   29   56 1
    54   30   35 1
    55   30   31 1
    56   31   32 1
    57   31   57 1
    58   31   58 1
    59   32   33 1
    60   32   59 1
    61   32   60 1
    62   33   34 1
    63   33   36 1
    64   33   68 1
    65   34   35 1
    66   34   61 1
    67   34   62 1
    68   35   63 1
    69   35   64 1
    70   36   65 1
    71   36   66 1
    72   36   67 1
@<TRIPOS>MOLECULE
CHEMBL496129__1
   68    72     0     0     0
SMALL
USER_CHARGES

@<TRIPOS>ATOM
      1 C1          0.0047    1.5025    0.0582 C.3       1 <0>        -0.1216
      2 C2          0.0198   -0.0042    0.0314 C.ar      1 <0>        -0.0743
      3 C3         -0.5713   -0.7187    1.0544 C.ar      1 <0>        -0.0996
      4 C4         -0.5596   -2.1003    1.0345 C.ar      1 <0>        -0.1337
      5 C5          0.0471   -2.7789   -0.0160 C.ar      1 <0>         0.1250
      6 C6          0.6426   -2.0690   -1.0474 C.ar      1 <0>        -0.0991
      7 C7          0.6257   -0.6763   -1.0291 C.ar      1 <0>        -0.0289
      8 C8          1.2559    0.0896   -2.1318 C.ar      1 <0>        -0.0432
      9 C9          0.5520    1.1183   -2.7573 C.ar      1 <0>        -0.1050
     10 C10         1.1370    1.8297   -3.7813 C.ar      1 <0>        -0.0830
     11 C11         2.4339    1.5213   -4.1927 C.ar      1 <0>        -0.0179
     12 C12         3.1379    0.4924   -3.5666 C.ar      1 <0>        -0.1015
     13 C13         2.5543   -0.2154   -2.5393 C.ar      1 <0>        -0.1041
     14 C14         3.0634    2.2863   -5.2950 C.2       1 <0>         0.1371
     15 C15         4.3315    1.9870   -5.7073 C.2       1 <0>        -0.2330
     16 S1          4.5509    3.1894   -7.0120 S.3       1 <0>        -0.0113
     17 C16         2.9454    3.9633   -6.8784 C.2       1 <0>         0.3878
     18 N1          2.3976    3.2690   -5.8982 N.2       1 <0>        -0.5725
     19 N2          2.4146    5.0114   -7.6123 N.pl3     1 <0>        -0.7949
     20 N3          0.0572   -4.1774   -0.0323 N.am      1 <0>        -0.6619
     21 C17        -0.0419   -4.8384   -1.2026 C.2       1 <0>         0.5477
     22 O1         -0.0554   -4.2214   -2.2500 O.2       1 <0>        -0.4993
     23 C18        -0.1343   -6.3136   -1.2127 C.ar      1 <0>        -0.0942
     24 C19        -0.1248   -7.0248   -0.0116 C.ar      1 <0>        -0.0836
     25 C20        -0.2113   -8.4015   -0.0281 C.ar      1 <0>        -0.1008
     26 C21        -0.3067   -9.0774   -1.2316 C.ar      1 <0>        -0.1378
     27 C22        -0.3166   -8.3786   -2.4257 C.ar      1 <0>        -0.0964
     28 C23        -0.2371   -7.0013   -2.4231 C.ar      1 <0>        -0.0535
     29 C24        -0.3998  -10.5815   -1.2420 C.3       1 <0>         0.0424
     30 N4         -1.8111  -10.9852   -1.1835 N.4       1 <0>        -0.3857
     31 C25        -2.3867  -10.5674    0.1016 C.3       1 <0>        -0.0078
     32 C26        -3.8618  -10.9710    0.1553 C.3       1 <0>         0.0255
     33 N5         -3.9741  -12.4281   -0.0008 N.3       1 <0>        -0.5431
     34 C27        -3.3794  -12.8642   -1.2722 C.3       1 <0>         0.0238
     35 C28        -1.9083  -12.4450   -1.3141 C.3       1 <0>        -0.0024
     36 C29        -5.3737  -12.8623    0.1021 C.3       1 <0>         0.0192
     37 H1         -0.8912    1.8658   -0.4452 H         1 <0>         0.0743
     38 H2          0.0058    1.8475    1.0922 H         1 <0>         0.0688
     39 H3          0.8886    1.8838   -0.4530 H         1 <0>         0.0741
     40 H4         -1.0440   -0.1961    1.8728 H         1 <0>         0.1320
     41 H5         -1.0229   -2.6544    1.8375 H         1 <0>         0.1263
     42 H6          1.1146   -2.5942   -1.8645 H         1 <0>         0.1413
     43 H7         -0.4520    1.3570   -2.4388 H         1 <0>         0.1269
     44 H8          0.5916    2.6259   -4.2661 H         1 <0>         0.1353
     45 H9          4.1418    0.2533   -3.8851 H         1 <0>         0.1279
     46 H10         3.1007   -1.0094   -2.0521 H         1 <0>         0.1247
     47 H11         5.0134    1.2322   -5.3445 H         1 <0>         0.1962
     48 H12         2.9399    5.4273   -8.3137 H         1 <0>         0.4229
     49 H13         1.5176    5.3294   -7.4248 H         1 <0>         0.4186
     50 H14         0.1356   -4.6715    0.7987 H         1 <0>         0.4094
     51 H15        -0.0496   -6.4985    0.9284 H         1 <0>         0.1397
     52 H16        -0.2040   -8.9530    0.9004 H         1 <0>         0.1407
     53 H17        -0.3910   -8.9122   -3.3617 H         1 <0>         0.1412
     54 H18        -0.2494   -6.4567   -3.3557 H         1 <0>         0.1514
     55 H19         0.0508  -10.9672   -2.1564 H         1 <0>         0.1413
     56 H20         0.1293  -10.9842   -0.3783 H         1 <0>         0.1404
     57 H21        -1.8477  -11.0517    0.9158 H         1 <0>         0.1386
     58 H22        -2.3022   -9.4854    0.2030 H         1 <0>         0.1349
     59 H23        -4.2854  -10.6743    1.1148 H         1 <0>         0.1235
     60 H24        -4.4039  -10.4760   -0.6505 H         1 <0>         0.0601
     61 H25        -3.4510  -13.9487   -1.3540 H         1 <0>         0.1248
     62 H26        -3.9135  -12.4005   -2.1015 H         1 <0>         0.0606
     63 H27        -1.4690  -12.7550   -2.2623 H         1 <0>         0.1373
     64 H28        -1.3717  -12.9197   -0.4926 H         1 <0>         0.1393
     65 H29        -5.9618  -12.3808   -0.6792 H         1 <0>         0.0396
     66 H30        -5.4281  -13.9444   -0.0170 H         1 <0>         0.0843
     67 H31        -5.7696  -12.5839    1.0787 H         1 <0>         0.0844
     68 H32        -2.3178  -10.5458   -1.9373 H         1 <0>         0.4206
@<TRIPOS>BOND
     1    1    2 1
     2    1   37 1
     3    1   38 1
     4    1   39 1
     5    2    7 ar
     6    2    3 ar
     7    3    4 ar
     8    3   40 1
     9    4    5 ar
    10    4   41 1
    11    5    6 ar
    12    5   20 1
    13    6    7 ar
    14    6   42 1
    15    7    8 1
    16    8   13 ar
    17    8    9 ar
    18    9   10 ar
    19    9   43 1
    20   10   11 ar
    21   10   44 1
    22   11   12 ar
    23   11   14 1
    24   12   13 ar
    25   12   45 1
    26   13   46 1
    27   14   18 1
    28   14   15 2
    29   15   16 1
    30   15   47 1
    31   16   17 1
    32   17   18 2
    33   17   19 1
    34   19   48 1
    35   19   49 1
    36   20   21 am
    37   20   50 1
    38   21   22 2
    39   21   23 1
    40   23   28 ar
    41   23   24 ar
    42   24   25 ar
    43   24   51 1
    44   25   26 ar
    45   25   52 1
    46   26   27 ar
    47   26   29 1
    48   27   28 ar
    49   27   53 1
    50   28   54 1
    51   29   30 1
    52   29   55 1
    53   29   56 1
    54   30   35 1
    55   30   31 1
    56   30   68 1
    57   31   32 1
    58   31   57 1
    59   31   58 1
    60   32   33 1
    61   32   59 1
    62   32   60 1
    63   33   34 1
    64   33   36 1
    65   34   35 1
    66   34   61 1
    67   34   62 1
    68   35   63 1
    69   35   64 1
    70   36   65 1
    71   36   66 1
    72   36   67 1
@<TRIPOS>MOLECULE
CHEMBL398933
   40    42     0     0     0
SMALL
USER_CHARGES

@<TRIPOS>ATOM
      1 C1         -0.0327    1.3724   -0.0116 C.ar      1 <0>        -0.1048
      2 C2          1.1495    2.0896   -0.0252 C.ar      1 <0>        -0.1244
      3 C3          2.3635    1.4288   -0.0374 C.ar      1 <0>        -0.1087
      4 C4          2.3983    0.0422   -0.0360 C.ar      1 <0>         0.1470
      5 C5          1.2058   -0.6812   -0.0224 C.ar      1 <0>         0.1342
      6 C6         -0.0076   -0.0097   -0.0102 C.ar      1 <0>        -0.1142
      7 N1          1.2337   -2.0817   -0.0210 N.am      1 <0>        -0.6631
      8 C7          0.2945   -2.7737    0.6538 C.2       1 <0>         0.5894
      9 O1         -0.6239   -2.1856    1.1939 O.2       1 <0>        -0.5030
     10 C8          0.3793   -4.2365    0.7373 C.2       1 <0>        -0.0542
     11 C9         -0.5043   -5.0526    1.3811 C.2       1 <0>        -0.0473
     12 C10        -0.0444   -6.3775    1.2098 C.2       1 <0>        -0.1290
     13 C11         1.1141   -6.3114    0.4596 C.2       1 <0>         0.1031
     14 N2          1.3613   -5.0212    0.1739 N.pl3     1 <0>        -0.5247
     15 H1          2.1129   -4.6945   -0.3450 H         1 <0>         0.4250
     16 C12        -0.6625   -7.5650    1.7179 C.1       1 <0>         0.2838
     17 N3         -1.1528   -8.5072    2.1211 N.1       1 <0>        -0.4244
     18 N4          3.6259   -0.6289   -0.0488 N.pl3     1 <0>        -0.6760
     19 C13         4.2716   -0.9841   -1.3199 C.3       1 <0>         0.1418
     20 C14         5.7019   -0.4354   -1.3166 C.3       1 <0>        -0.1368
     21 C15         6.4366   -0.9447   -0.0744 C.3       1 <0>        -0.1156
     22 C16         5.7238   -0.4429    1.1835 C.3       1 <0>        -0.1377
     23 C17         4.2968   -0.9864    1.2085 C.3       1 <0>         0.1471
     24 H2         -0.9785    1.8936    0.0024 H         1 <0>         0.1273
     25 H3          1.1241    3.1693   -0.0266 H         1 <0>         0.1244
     26 H4          3.2849    1.9921   -0.0483 H         1 <0>         0.1247
     27 H5         -0.9328   -0.5666    0.0004 H         1 <0>         0.1414
     28 H6          1.9291   -2.5534   -0.5056 H         1 <0>         0.4039
     29 H7         -1.3879   -4.7442    1.9200 H         1 <0>         0.1631
     30 H8          1.7164   -7.1534    0.1517 H         1 <0>         0.1914
     31 H9          4.2966   -2.0686   -1.4265 H         1 <0>         0.0461
     32 H10         3.7142   -0.5462   -2.1479 H         1 <0>         0.0697
     33 H11         6.2234   -0.7736   -2.2120 H         1 <0>         0.0677
     34 H12         5.6735    0.6541   -1.3013 H         1 <0>         0.0650
     35 H13         6.4430   -2.0347   -0.0778 H         1 <0>         0.0599
     36 H14         7.4622   -0.5757   -0.0823 H         1 <0>         0.0610
     37 H15         6.2609   -0.7866    2.0675 H         1 <0>         0.0680
     38 H16         5.6952    0.6467    1.1753 H         1 <0>         0.0644
     39 H17         3.7558   -0.5499    2.0482 H         1 <0>         0.0682
     40 H18         4.3238   -2.0710    1.3127 H         1 <0>         0.0462
@<TRIPOS>BOND
     1    1    6 ar
     2    1    2 ar
     3    1   24 1
     4    2    3 ar
     5    2   25 1
     6    3    4 ar
     7    3   26 1
     8    4    5 ar
     9    4   18 1
    10    5    6 ar
    11    5    7 1
    12    6   27 1
    13    7    8 am
    14    7   28 1
    15    8    9 2
    16    8   10 1
    17   10   14 1
    18   10   11 2
    19   11   12 1
    20   11   29 1
    21   12   13 2
    22   12   16 1
    23   13   14 1
    24   13   30 1
    25   14   15 1
    26   16   17 3
    27   18   23 1
    28   18   19 1
    29   19   20 1
    30   19   31 1
    31   19   32 1
    32   20   21 1
    33   20   33 1
    34   20   34 1
    35   21   22 1
    36   21   35 1
    37   21   36 1
    38   22   23 1
    39   22   37 1
    40   22   38 1
    41   23   39 1
    42   23   40 1
@<TRIPOS>MOLECULE
CHEMBL514619
   45    47     0     0     0
SMALL
USER_CHARGES

@<TRIPOS>ATOM
      1 C1          1.8629   -4.1329    3.5811 C.3       1 <0>        -0.1137
      2 C2          1.2138   -3.6476    2.3106 C.ar      1 <0>        -0.1403
      3 C3          1.2527   -4.4233    1.1651 C.ar      1 <0>        -0.0144
      4 C4          0.6354   -3.9309    0.0091 C.ar      1 <0>        -0.1883
      5 C5          0.0092   -2.6844    0.0582 C.ar      1 <0>         0.1296
      6 N1         -0.0004   -1.9834    1.1726 N.ar      1 <0>        -0.4807
      7 C6          0.5681   -2.4249    2.2786 C.ar      1 <0>         0.1265
      8 C7          0.6470   -4.7174   -1.2423 C.2       1 <0>         0.5679
      9 O1          1.1958   -5.8016   -1.2736 O.2       1 <0>        -0.5103
     10 N2          0.0492   -4.2324   -2.3486 N.am      1 <0>        -0.6687
     11 C8          0.1429   -4.9301   -3.5569 C.ar      1 <0>         0.1477
     12 C9          0.2284   -4.2356   -4.7569 C.ar      1 <0>        -0.1390
     13 C10         0.3208   -4.9275   -5.9483 C.ar      1 <0>        -0.0943
     14 C11         0.3282   -6.3106   -5.9477 C.ar      1 <0>        -0.1252
     15 C12         0.2428   -7.0049   -4.7551 C.ar      1 <0>        -0.0748
     16 C13         0.1564   -6.3187   -3.5594 C.ar      1 <0>        -0.1068
     17 C14         0.2502   -8.5119   -4.7593 C.3       1 <0>         0.1899
     18 H1         -0.1702   -8.8799   -3.8234 H         1 <0>         0.0911
     19 C15         1.6879   -9.0144   -4.9052 C.3       1 <0>        -0.1658
     20 N3         -0.5543   -9.0011   -5.8817 N.pl3     1 <0>        -0.7295
     21 C16        -1.1342  -10.2708   -5.8244 C.ar      1 <0>         0.1786
     22 C17        -1.8962  -10.7483   -6.8882 C.ar      1 <0>        -0.1301
     23 C18        -2.4505  -12.0142   -6.7845 C.ar      1 <0>        -0.0931
     24 C19        -2.2307  -12.7560   -5.6374 C.ar      1 <0>         0.0674
     25 N4         -1.5042  -12.2744   -4.6482 N.ar      1 <0>        -0.4327
     26 C20        -0.9547  -11.0778   -4.7083 C.ar      1 <0>         0.0387
     27 Br1        -3.4956  -12.7192   -8.1940 Br        1 <0>        -0.0332
     28 H2          1.1407   -4.7067    4.1619 H         1 <0>         0.0788
     29 H3          2.7157   -4.7654    3.3349 H         1 <0>         0.0737
     30 H4          2.2016   -3.2775    4.1657 H         1 <0>         0.0755
     31 H5          1.7468   -5.3837    1.1630 H         1 <0>         0.1499
     32 H6         -0.4712   -2.2915   -0.8257 H         1 <0>         0.1575
     33 H7          0.5328   -1.8194    3.1722 H         1 <0>         0.1644
     34 H8         -0.4461   -3.3994   -2.3067 H         1 <0>         0.4122
     35 H9          0.2223   -3.1556   -4.7581 H         1 <0>         0.1289
     36 H10         0.3870   -4.3882   -6.8816 H         1 <0>         0.1307
     37 H11         0.4005   -6.8494   -6.8809 H         1 <0>         0.1224
     38 H12         0.0948   -6.8616   -2.6278 H         1 <0>         0.1426
     39 H13         2.1083   -8.6464   -5.8411 H         1 <0>         0.0631
     40 H14         2.2865   -8.6504   -4.0701 H         1 <0>         0.0725
     41 H15         1.6933  -10.1044   -4.9082 H         1 <0>         0.0651
     42 H16        -0.6843   -8.4434   -6.6647 H         1 <0>         0.4028
     43 H17        -2.0515  -10.1468   -7.7716 H         1 <0>         0.1420
     44 H18        -2.6606  -13.7430   -5.5509 H         1 <0>         0.1620
     45 H19        -0.3624  -10.7194   -3.8793 H         1 <0>         0.1593
@<TRIPOS>BOND
     1    1    2 1
     2    1   28 1
     3    1   29 1
     4    1   30 1
     5    2    7 ar
     6    2    3 ar
     7    3    4 ar
     8    3   31 1
     9    4    5 ar
    10    4    8 1
    11    5    6 ar
    12    5   32 1
    13    6    7 ar
    14    7   33 1
    15    8    9 2
    16    8   10 am
    17   10   11 1
    18   10   34 1
    19   11   16 ar
    20   11   12 ar
    21   12   13 ar
    22   12   35 1
    23   13   14 ar
    24   13   36 1
    25   14   15 ar
    26   14   37 1
    27   15   16 ar
    28   15   17 1
    29   16   38 1
    30   17   18 1
    31   17   19 1
    32   17   20 1
    33   19   39 1
    34   19   40 1
    35   19   41 1
    36   20   21 1
    37   20   42 1
    38   21   26 ar
    39   21   22 ar
    40   22   23 ar
    41   22   43 1
    42   23   24 ar
    43   23   27 1
    44   24   25 ar
    45   24   44 1
    46   25   26 ar
    47   26   45 1
@<TRIPOS>MOLECULE
CHEMBL255584
   67    72     0     0     0
SMALL
USER_CHARGES

@<TRIPOS>ATOM
      1 C1          1.7959   -0.3581   -1.8137 C.3       1 <0>        -0.0470
      2 N1          1.2778   -1.6614   -1.3767 N.4       1 <0>        -0.3841
      3 C2         -0.1559   -1.5425   -1.0826 C.3       1 <0>        -0.0233
      4 C3         -0.7217   -2.9240   -0.7374 C.3       1 <0>         0.0995
      5 N2          0.0775   -3.4949    0.3577 N.pl3     1 <0>        -0.6440
      6 C4          1.5417   -3.5041    0.2157 C.3       1 <0>         0.0993
      7 C5          2.0007   -2.0953   -0.1745 C.3       1 <0>        -0.0226
      8 C6         -0.5364   -4.0132    1.5003 C.ar      1 <0>         0.2173
      9 C7         -1.9117   -3.8967    1.6647 C.ar      1 <0>        -0.1997
     10 C8         -2.5196   -4.4089    2.7943 C.ar      1 <0>        -0.0493
     11 C9         -1.7633   -5.0385    3.7643 C.ar      1 <0>        -0.1456
     12 C10        -0.3881   -5.1584    3.6062 C.ar      1 <0>         0.2112
     13 C11         0.2251   -4.6499    2.4697 C.ar      1 <0>        -0.2138
     14 N3          0.3763   -5.7956    4.5882 N.pl3     1 <0>        -0.6300
     15 C12        -0.1481   -6.8673    5.2843 C.ar      1 <0>         0.6088
     16 N4         -1.3315   -7.3488    4.9194 N.ar      1 <0>        -0.5662
     17 C13        -1.8755   -8.3725    5.5536 C.ar      1 <0>         0.2832
     18 C14        -1.1771   -8.9406    6.6206 C.ar      1 <0>        -0.3310
     19 C15        -1.7079  -10.0816    7.3806 C.2       1 <0>         0.4530
     20 O1         -2.7857  -10.5813    7.1086 O.2       1 <0>        -0.4750
     21 C16        -0.8787  -10.5947    8.4855 C.2       1 <0>        -0.3193
     22 C17         0.3315   -9.9898    8.7464 C.2       1 <0>         0.2503
     23 N5          0.7827   -8.9470    8.0276 N.pl3     1 <0>        -0.4235
     24 C18         0.0758   -8.4062    6.9824 C.ar      1 <0>         0.4661
     25 N6          0.5502   -7.3789    6.2863 N.ar      1 <0>        -0.5830
     26 C19         2.0238   -8.3901    8.3585 C.ar      1 <0>         0.0917
     27 C20         3.1861   -9.1334    8.1981 C.ar      1 <0>        -0.1006
     28 C21         4.4065   -8.5793    8.5252 C.ar      1 <0>        -0.0940
     29 C22         4.4783   -7.2846    9.0137 C.ar      1 <0>        -0.0747
     30 C23         3.3229   -6.5420    9.1746 C.ar      1 <0>        -0.0864
     31 C24         2.0973   -7.0918    8.8423 C.ar      1 <0>        -0.0675
     32 C25         3.6670   -5.1718    9.7186 C.3       1 <0>        -0.0822
     33 C26         5.0972   -5.3084   10.2824 C.3       1 <0>        -0.1217
     34 C27         5.6771   -6.4633    9.4385 C.3       1 <0>        -0.0872
     35 C28        -1.3357  -11.7339    9.2970 C.2       1 <0>         0.5893
     36 O2         -0.6026  -12.2119   10.1418 O.2       1 <0>        -0.5555
     37 N7         -2.5667  -12.2477    9.1044 N.am      1 <0>        -0.8423
     38 H1          2.8585   -0.4469   -2.0401 H         1 <0>         0.1249
     39 H2          1.2601   -0.0349   -2.7062 H         1 <0>         0.1255
     40 H3          1.6536    0.3744   -1.0192 H         1 <0>         0.1217
     41 H4         -0.2988   -0.8696   -0.2371 H         1 <0>         0.1327
     42 H5         -0.6742   -1.1451   -1.9552 H         1 <0>         0.1414
     43 H6         -1.7600   -2.8258   -0.4206 H         1 <0>         0.1288
     44 H7         -0.6621   -3.5729   -1.6112 H         1 <0>         0.0883
     45 H8          1.9998   -3.7895    1.1627 H         1 <0>         0.1247
     46 H9          1.8298   -4.2117   -0.5619 H         1 <0>         0.0876
     47 H10         3.0715   -2.1052   -0.3780 H         1 <0>         0.1406
     48 H11         1.7924   -1.4056    0.6435 H         1 <0>         0.1325
     49 H12        -2.5056   -3.4048    0.9085 H         1 <0>         0.1242
     50 H13        -3.5883   -4.3167    2.9199 H         1 <0>         0.1330
     51 H14        -2.2416   -5.4376    4.6466 H         1 <0>         0.1367
     52 H15         1.2933   -4.7458    2.3423 H         1 <0>         0.1252
     53 H16         1.2749   -5.4852    4.7806 H         1 <0>         0.4262
     54 H17        -2.8378   -8.7604    5.2538 H         1 <0>         0.1953
     55 H18         0.9385  -10.3662    9.5565 H         1 <0>         0.1911
     56 H19         3.1346  -10.1431    7.8184 H         1 <0>         0.1341
     57 H20         5.3101   -9.1575    8.4004 H         1 <0>         0.1344
     58 H21         1.1953   -6.5103    8.9636 H         1 <0>         0.1235
     59 H22         3.6447   -4.4311    8.9193 H         1 <0>         0.0821
     60 H23         2.9727   -4.8945   10.5117 H         1 <0>         0.0788
     61 H24         5.6647   -4.3911   10.1256 H         1 <0>         0.0809
     62 H25         5.0733   -5.5748   11.3390 H         1 <0>         0.0771
     63 H26         6.3556   -7.0678   10.0404 H         1 <0>         0.0823
     64 H27         6.1949   -6.0696    8.5639 H         1 <0>         0.0850
     65 H28        -3.1235  -11.9154    8.3829 H         1 <0>         0.4130
     66 H29        -2.8959  -12.9498    9.6871 H         1 <0>         0.4034
     67 H30         1.4128   -2.3393   -2.1118 H         1 <0>         0.4249
@<TRIPOS>BOND
     1    1    2 1
     2    1   38 1
     3    1   39 1
     4    1   40 1
     5    2    7 1
     6    2    3 1
     7    2   67 1
     8    3    4 1
     9    3   41 1
    10    3   42 1
    11    4    5 1
    12    4   43 1
    13    4   44 1
    14    5    6 1
    15    5    8 1
    16    6    7 1
    17    6   45 1
    18    6   46 1
    19    7   47 1
    20    7   48 1
    21    8   13 ar
    22    8    9 ar
    23    9   10 ar
    24    9   49 1
    25   10   11 ar
    26   10   50 1
    27   11   12 ar
    28   11   51 1
    29   12   13 ar
    30   12   14 1
    31   13   52 1
    32   14   15 1
    33   14   53 1
    34   15   25 ar
    35   15   16 ar
    36   16   17 ar
    37   17   18 ar
    38   17   54 1
    39   18   24 ar
    40   18   19 1
    41   19   20 2
    42   19   21 1
    43   21   22 2
    44   21   35 1
    45   22   23 1
    46   22   55 1
    47   23   24 1
    48   23   26 1
    49   24   25 ar
    50   26   31 ar
    51   26   27 ar
    52   27   28 ar
    53   27   56 1
    54   28   29 ar
    55   28   57 1
    56   29   34 1
    57   29   30 ar
    58   30   31 ar
    59   30   32 1
    60   31   58 1
    61   32   33 1
    62   32   59 1
    63   32   60 1
    64   33   34 1
    65   33   61 1
    66   33   62 1
    67   34   63 1
    68   34   64 1
    69   35   36 2
    70   35   37 am
    71   37   65 1
    72   37   66 1
@<TRIPOS>MOLECULE
CHEMBL255584__1
   66    71     0     0     0
SMALL
USER_CHARGES

@<TRIPOS>ATOM
      1 C1          1.8925   -0.2601   -1.8197 C.3       1 <0>         0.0242
      2 N1          1.3710   -1.5656   -1.3936 N.3       1 <0>        -0.5427
      3 C2         -0.0793   -1.5050   -1.1680 C.3       1 <0>         0.0381
      4 C3         -0.6112   -2.9176   -0.9034 C.3       1 <0>         0.1256
      5 N2          0.1650   -3.5107    0.1962 N.pl3     1 <0>        -0.6298
      6 C4          1.6328   -3.4848    0.1049 C.3       1 <0>         0.1259
      7 C5          2.0763   -2.0499   -0.1994 C.3       1 <0>         0.0390
      8 C6         -0.4747   -4.0830    1.2980 C.ar      1 <0>         0.2403
      9 C7         -1.8568   -4.0008    1.4202 C.ar      1 <0>        -0.2097
     10 C8         -2.4902   -4.5665    2.5096 C.ar      1 <0>        -0.0509
     11 C9         -1.7527   -5.2157    3.4812 C.ar      1 <0>        -0.1650
     12 C10        -0.3708   -5.3015    3.3651 C.ar      1 <0>         0.2018
     13 C11         0.2682   -4.7392    2.2690 C.ar      1 <0>        -0.2239
     14 N3          0.3746   -5.9586    4.3486 N.pl3     1 <0>        -0.6240
     15 C12        -0.1491   -7.0656    4.9877 C.ar      1 <0>         0.6132
     16 N4         -1.3091   -7.5575    4.5661 N.ar      1 <0>        -0.5597
     17 C13        -1.8513   -8.6148    5.1444 C.ar      1 <0>         0.2825
     18 C14        -1.1762   -9.2072    6.2131 C.ar      1 <0>        -0.3385
     19 C15        -1.7068  -10.3859    6.9133 C.2       1 <0>         0.4550
     20 O1         -2.7640  -10.8973    6.5874 O.2       1 <0>        -0.4806
     21 C16        -0.9034  -10.9222    8.0263 C.2       1 <0>        -0.3254
     22 C17         0.2841  -10.3026    8.3493 C.2       1 <0>         0.2529
     23 N5          0.7360   -9.2251    7.6841 N.pl3     1 <0>        -0.4243
     24 C18         0.0523   -8.6609    6.6359 C.ar      1 <0>         0.4642
     25 N6          0.5269   -7.5992    5.9935 N.ar      1 <0>        -0.5870
     26 C19         1.9532   -8.6553    8.0764 C.ar      1 <0>         0.0942
     27 C20         3.1360   -9.3683    7.9285 C.ar      1 <0>        -0.1015
     28 C21         4.3327   -8.8017    8.3162 C.ar      1 <0>        -0.0946
     29 C22         4.3603   -7.5246    8.8531 C.ar      1 <0>        -0.0765
     30 C23         3.1844   -6.8123    9.0018 C.ar      1 <0>        -0.0858
     31 C24         1.9826   -7.3745    8.6088 C.ar      1 <0>        -0.0669
     32 C25         3.4806   -5.4562    9.6059 C.3       1 <0>        -0.0829
     33 C26         4.8942   -5.5841   10.2122 C.3       1 <0>        -0.1211
     34 C27         5.5264   -6.6951    9.3473 C.3       1 <0>        -0.0865
     35 C28        -1.3620  -12.0995    8.7805 C.2       1 <0>         0.5913
     36 O2         -0.6468  -12.5930    9.6316 O.2       1 <0>        -0.5596
     37 N7         -2.5746  -12.6309    8.5281 N.am      1 <0>        -0.8433
     38 H1          2.9533   -0.3512   -2.0532 H         1 <0>         0.0707
     39 H2          1.3529    0.0752   -2.7055 H         1 <0>         0.0708
     40 H3          1.7582    0.4645   -1.0165 H         1 <0>         0.0259
     41 H4         -0.2872   -0.8708   -0.3062 H         1 <0>         0.0389
     42 H5         -0.5677   -1.0919   -2.0505 H         1 <0>         0.0866
     43 H6         -1.6632   -2.8662   -0.6228 H         1 <0>         0.0890
     44 H7         -0.4980   -3.5256   -1.8010 H         1 <0>         0.0712
     45 H8          2.0643   -3.8084    1.0521 H         1 <0>         0.0847
     46 H9          1.9616   -4.1473   -0.6958 H         1 <0>         0.0704
     47 H10         3.1511   -2.0319   -0.3795 H         1 <0>         0.0858
     48 H11         1.8384   -1.4081    0.6488 H         1 <0>         0.0385
     49 H12        -2.4361   -3.4938    0.6627 H         1 <0>         0.1235
     50 H13        -3.5642   -4.5009    2.6024 H         1 <0>         0.1258
     51 H14        -2.2510   -5.6566    4.3319 H         1 <0>         0.1292
     52 H15         1.3418   -4.8084    2.1741 H         1 <0>         0.1241
     53 H16         1.2594   -5.6371    4.5822 H         1 <0>         0.4250
     54 H17        -2.7946   -9.0110    4.7986 H         1 <0>         0.1931
     55 H18         0.8722  -10.6959    9.1653 H         1 <0>         0.1888
     56 H19         3.1189  -10.3643    7.5111 H         1 <0>         0.1335
     57 H20         5.2522   -9.3563    8.2010 H         1 <0>         0.1333
     58 H21         1.0647   -6.8164    8.7206 H         1 <0>         0.1240
     59 H22         3.4685   -4.6872    8.8335 H         1 <0>         0.0839
     60 H23         2.7548   -5.2225   10.3848 H         1 <0>         0.0781
     61 H24         5.4465   -4.6502   10.1077 H         1 <0>         0.0805
     62 H25         4.8414   -5.8895   11.2572 H         1 <0>         0.0755
     63 H26         6.1977   -7.3072    9.9495 H         1 <0>         0.0807
     64 H27         6.0640   -6.2590    8.5053 H         1 <0>         0.0854
     65 H28        -3.1145  -12.2839    7.8008 H         1 <0>         0.4135
     66 H29        -2.9075  -13.3605    9.0739 H         1 <0>         0.4014
@<TRIPOS>BOND
     1    1    2 1
     2    1   38 1
     3    1   39 1
     4    1   40 1
     5    2    7 1
     6    2    3 1
     7    3    4 1
     8    3   41 1
     9    3   42 1
    10    4    5 1
    11    4   43 1
    12    4   44 1
    13    5    6 1
    14    5    8 1
    15    6    7 1
    16    6   45 1
    17    6   46 1
    18    7   47 1
    19    7   48 1
    20    8   13 ar
    21    8    9 ar
    22    9   10 ar
    23    9   49 1
    24   10   11 ar
    25   10   50 1
    26   11   12 ar
    27   11   51 1
    28   12   13 ar
    29   12   14 1
    30   13   52 1
    31   14   15 1
    32   14   53 1
    33   15   25 ar
    34   15   16 ar
    35   16   17 ar
    36   17   18 ar
    37   17   54 1
    38   18   24 ar
    39   18   19 1
    40   19   20 2
    41   19   21 1
    42   21   22 2
    43   21   35 1
    44   22   23 1
    45   22   55 1
    46   23   24 1
    47   23   26 1
    48   24   25 ar
    49   26   31 ar
    50   26   27 ar
    51   27   28 ar
    52   27   56 1
    53   28   29 ar
    54   28   57 1
    55   29   34 1
    56   29   30 ar
    57   30   31 ar
    58   30   32 1
    59   31   58 1
    60   32   33 1
    61   32   59 1
    62   32   60 1
    63   33   34 1
    64   33   61 1
    65   33   62 1
    66   34   63 1
    67   34   64 1
    68   35   36 2
    69   35   37 am
    70   37   65 1
    71   37   66 1
@<TRIPOS>MOLECULE
CHEMBL136011
   31    33     0     0     0
SMALL
USER_CHARGES

@<TRIPOS>ATOM
      1 C1         -0.1019    1.5157    0.0377 C.3       1 <0>        -0.1169
      2 C2         -0.0501    0.0097    0.0198 C.ar      1 <0>        -0.0424
      3 C3         -0.0290   -0.6665   -1.1865 C.ar      1 <0>        -0.1637
      4 C4          0.0186   -2.0482   -1.2074 C.ar      1 <0>        -0.0706
      5 C5          0.0457   -2.7578   -0.0227 C.ar      1 <0>        -0.1820
      6 C6          0.0252   -2.0819    1.1904 C.ar      1 <0>         0.2140
      7 C7         -0.0178   -0.6934    1.2078 C.ar      1 <0>        -0.1796
      8 N1          0.0525   -2.7970    2.3913 N.pl3     1 <0>        -0.5873
      9 C8          0.1582   -2.0836    3.6664 C.3       1 <0>         0.0970
     10 C9         -0.0198   -4.1729    2.3756 C.ar      1 <0>         0.5352
     11 C10         1.1867   -4.9959    2.4082 C.ar      1 <0>        -0.3221
     12 C11         2.5432   -4.7666    2.4560 C.2       1 <0>         0.1481
     13 N2          3.1593   -5.9560    2.4653 N.pl3     1 <0>        -0.4091
     14 N3          2.2110   -6.9853    2.4234 N.2       1 <0>        -0.2779
     15 C12         1.0067   -6.4587    2.3880 C.ar      1 <0>         0.2930
     16 N4         -0.2530   -6.9334    2.3410 N.ar      1 <0>        -0.5031
     17 C13        -1.2770   -6.1211    2.3145 C.ar      1 <0>         0.3608
     18 N5         -1.1889   -4.8008    2.3358 N.ar      1 <0>        -0.5567
     19 H1          0.9126    1.9142    0.0352 H         1 <0>         0.0724
     20 H2         -0.6343    1.8714   -0.8444 H         1 <0>         0.0688
     21 H3         -0.6216    1.8507    0.9354 H         1 <0>         0.0671
     22 H4         -0.0502   -0.1140   -2.1143 H         1 <0>         0.1216
     23 H5          0.0342   -2.5732   -2.1511 H         1 <0>         0.1231
     24 H6          0.0825   -3.8371   -0.0397 H         1 <0>         0.1115
     25 H7         -0.0301   -0.1647    2.1495 H         1 <0>         0.1273
     26 H8         -0.8389   -1.9218    4.0759 H         1 <0>         0.0613
     27 H9          0.7469   -2.6763    4.3667 H         1 <0>         0.0685
     28 H10         0.6453   -1.1219    3.5054 H         1 <0>         0.0852
     29 H11         3.0247   -3.8002    2.4812 H         1 <0>         0.1977
     30 H12        -2.2639   -6.5581    2.2767 H         1 <0>         0.2051
     31 H13         4.1202   -6.0852    2.4960 H         1 <0>         0.4536
@<TRIPOS>BOND
     1    1    2 1
     2    1   19 1
     3    1   20 1
     4    1   21 1
     5    2    7 ar
     6    2    3 ar
     7    3    4 ar
     8    3   22 1
     9    4    5 ar
    10    4   23 1
    11    5    6 ar
    12    5   24 1
    13    6    7 ar
    14    6    8 1
    15    7   25 1
    16    8    9 1
    17    8   10 1
    18    9   26 1
    19    9   27 1
    20    9   28 1
    21   10   18 ar
    22   10   11 ar
    23   11   15 ar
    24   11   12 2
    25   12   13 1
    26   12   29 1
    27   13   14 1
    28   13   31 1
    29   14   15 2
    30   15   16 ar
    31   16   17 ar
    32   17   18 ar
    33   17   30 1
@<TRIPOS>MOLECULE
CHEMBL136011__1
   31    33     0     0     0
SMALL
USER_CHARGES

@<TRIPOS>ATOM
      1 C1         -0.1028    1.5147    0.0360 C.3       1 <0>        -0.1169
      2 C2         -0.0507    0.0087    0.0187 C.ar      1 <0>        -0.0419
      3 C3         -0.0299   -0.6679   -1.1874 C.ar      1 <0>        -0.1640
      4 C4          0.0174   -2.0496   -1.2077 C.ar      1 <0>        -0.0705
      5 C5          0.0440   -2.7588   -0.0227 C.ar      1 <0>        -0.1823
      6 C6          0.0236   -2.0824    1.1901 C.ar      1 <0>         0.2153
      7 C7         -0.0182   -0.6939    1.2070 C.ar      1 <0>        -0.1796
      8 N1          0.0499   -2.7971    2.3912 N.pl3     1 <0>        -0.5868
      9 C8          0.1558   -2.0832    3.6662 C.3       1 <0>         0.0970
     10 C9         -0.0239   -4.1772    2.3760 C.ar      1 <0>         0.5062
     11 C10         1.1448   -4.9626    2.4086 C.ar      1 <0>        -0.2772
     12 C11         2.5276   -4.6833    2.4578 C.2       1 <0>         0.1122
     13 N2          3.1765   -5.8127    2.4697 N.2       1 <0>        -0.2295
     14 N3          2.2690   -6.8788    2.4296 N.pl3     1 <0>        -0.4777
     15 C12         1.0073   -6.3642    2.3915 C.ar      1 <0>         0.3509
     16 N4         -0.2163   -6.8891    2.3451 N.ar      1 <0>        -0.5353
     17 C13        -1.2782   -6.1143    2.3157 C.ar      1 <0>         0.3620
     18 N5         -1.1991   -4.7954    2.3359 N.ar      1 <0>        -0.5496
     19 H1          0.9117    1.9134    0.0331 H         1 <0>         0.0728
     20 H2         -0.6353    1.8700   -0.8462 H         1 <0>         0.0685
     21 H3         -0.6224    1.8501    0.9336 H         1 <0>         0.0670
     22 H4         -0.0509   -0.1158   -2.1154 H         1 <0>         0.1215
     23 H5          0.0332   -2.5750   -2.1512 H         1 <0>         0.1226
     24 H6          0.0802   -3.8381   -0.0393 H         1 <0>         0.1093
     25 H7         -0.0297   -0.1647    2.1484 H         1 <0>         0.1274
     26 H8         -0.8413   -1.9203    4.0752 H         1 <0>         0.0599
     27 H9          0.7435   -2.6762    4.3669 H         1 <0>         0.0688
     28 H10         0.6439   -1.1220    3.5049 H         1 <0>         0.0858
     29 H11         2.9724   -3.6995    2.4815 H         1 <0>         0.2014
     30 H12        -2.2546   -6.5744    2.2783 H         1 <0>         0.2116
     31 H13         2.4988   -7.8212    2.4285 H         1 <0>         0.4510
@<TRIPOS>BOND
     1    1    2 1
     2    1   19 1
     3    1   20 1
     4    1   21 1
     5    2    7 ar
     6    2    3 ar
     7    3    4 ar
     8    3   22 1
     9    4    5 ar
    10    4   23 1
    11    5    6 ar
    12    5   24 1
    13    6    7 ar
    14    6    8 1
    15    7   25 1
    16    8    9 1
    17    8   10 1
    18    9   26 1
    19    9   27 1
    20    9   28 1
    21   10   18 ar
    22   10   11 ar
    23   11   12 1
    24   11   15 ar
    25   12   29 1
    26   12   13 2
    27   13   14 1
    28   14   15 1
    29   14   31 1
    30   15   16 ar
    31   16   17 ar
    32   17   18 ar
    33   17   30 1
@<TRIPOS>MOLECULE
CHEMBL522892
   51    55     0     0     0
SMALL
USER_CHARGES

@<TRIPOS>ATOM
      1 C1          0.8051    0.2324   -1.4077 C.3       1 <0>        -0.0469
      2 N1          0.6955   -1.2174   -1.1983 N.4       1 <0>        -0.3836
      3 C2         -0.7220   -1.5942   -1.1286 C.3       1 <0>        -0.0238
      4 C3         -0.8398   -3.1185   -1.0252 C.3       1 <0>         0.1007
      5 N2         -0.0339   -3.5719    0.1190 N.pl3     1 <0>        -0.6429
      6 C4          1.3580   -3.1056    0.2148 C.3       1 <0>         0.0996
      7 C5          1.3720   -1.5820    0.0529 C.3       1 <0>        -0.0227
      8 C6         -0.5760   -4.4220    1.0884 C.ar      1 <0>         0.2062
      9 C7         -1.9255   -4.7646    1.0342 C.ar      1 <0>        -0.1830
     10 C8         -2.4703   -5.5930    1.9732 C.ar      1 <0>        -0.0215
     11 C9         -1.6721   -6.1058    3.0008 C.ar      1 <0>         0.0284
     12 C10        -0.3102   -5.7623    3.0579 C.ar      1 <0>         0.0883
     13 C11         0.2327   -4.9242    2.0953 C.ar      1 <0>        -0.1814
     14 N3          0.2069   -6.4109    4.1649 N.pl3     1 <0>        -0.5840
     15 H1          1.1247   -6.3750    4.4767 H         1 <0>         0.4352
     16 C12        -0.8212   -7.1137    4.7396 C.2       1 <0>         0.3897
     17 N4         -1.9231   -6.9297    4.0499 N.2       1 <0>        -0.5167
     18 C13        -0.7066   -7.9483    5.9473 C.2       1 <0>        -0.2897
     19 C14        -1.7912   -8.7175    6.3752 C.2       1 <0>         0.3714
     20 C15        -1.6270   -9.5324    7.5845 C.ar      1 <0>        -0.1860
     21 C16        -0.3945   -9.5089    8.2620 C.ar      1 <0>         0.2412
     22 C17        -0.2309  -10.2780    9.4084 C.ar      1 <0>        -0.1738
     23 C18        -1.2716  -11.0554    9.8720 C.ar      1 <0>        -0.0195
     24 C19        -2.4877  -11.0809    9.2068 C.ar      1 <0>        -0.1807
     25 C20        -2.6747  -10.3254    8.0671 C.ar      1 <0>         0.1693
     26 F1         -3.8609  -10.3517    7.4210 F         1 <0>        -0.1207
     27 N5          0.6390   -8.7260    7.7867 N.am      1 <0>        -0.6329
     28 H2          1.4842   -8.7182    8.2626 H         1 <0>         0.4234
     29 C21         0.5046   -7.9802    6.6776 C.2       1 <0>         0.5800
     30 O1          1.4476   -7.3102    6.2941 O.2       1 <0>        -0.5593
     31 N6         -2.9786   -8.7110    5.6835 N.pl3     1 <0>        -0.8071
     32 H3          1.8569    0.5124   -1.4676 H         1 <0>         0.1245
     33 H4          0.3033    0.5044   -2.3363 H         1 <0>         0.1249
     34 H5          0.3366    0.7563   -0.5745 H         1 <0>         0.1214
     35 H6         -1.1777   -1.1342   -0.2517 H         1 <0>         0.1326
     36 H7         -1.2341   -1.2502   -2.0271 H         1 <0>         0.1407
     37 H8         -1.8827   -3.3957   -0.8715 H         1 <0>         0.1284
     38 H9         -0.4668   -3.5776   -1.9408 H         1 <0>         0.0875
     39 H10         1.7681   -3.3743    1.1883 H         1 <0>         0.1252
     40 H11         1.9529   -3.5634   -0.5755 H         1 <0>         0.0872
     41 H12         2.4029   -1.2289    0.0249 H         1 <0>         0.1401
     42 H13         0.8530   -1.1223    0.8940 H         1 <0>         0.1324
     43 H14        -2.5461   -4.3713    0.2427 H         1 <0>         0.1289
     44 H15        -3.5176   -5.8518    1.9226 H         1 <0>         0.1348
     45 H16         1.2794   -4.6608    2.1329 H         1 <0>         0.1222
     46 H17         0.7114  -10.2670    9.9359 H         1 <0>         0.1489
     47 H18        -1.1375  -11.6511   10.7629 H         1 <0>         0.1511
     48 H19        -3.2928  -11.6948    9.5826 H         1 <0>         0.1510
     49 H20        -2.9880   -8.4943    4.7380 H         1 <0>         0.4268
     50 H21        -3.8074   -8.9232    6.1406 H         1 <0>         0.4097
     51 H22         1.1321   -1.7012   -1.9686 H         1 <0>         0.4245
@<TRIPOS>BOND
     1    1    2 1
     2    1   32 1
     3    1   33 1
     4    1   34 1
     5    2    7 1
     6    2    3 1
     7    2   51 1
     8    3    4 1
     9    3   35 1
    10    3   36 1
    11    4    5 1
    12    4   37 1
    13    4   38 1
    14    5    6 1
    15    5    8 1
    16    6    7 1
    17    6   39 1
    18    6   40 1
    19    7   41 1
    20    7   42 1
    21    8   13 ar
    22    8    9 ar
    23    9   10 ar
    24    9   43 1
    25   10   11 ar
    26   10   44 1
    27   11   17 1
    28   11   12 ar
    29   12   13 ar
    30   12   14 1
    31   13   45 1
    32   14   15 1
    33   14   16 1
    34   16   17 2
    35   16   18 1
    36   18   29 1
    37   18   19 2
    38   19   20 1
    39   19   31 1
    40   20   25 ar
    41   20   21 ar
    42   21   22 ar
    43   21   27 1
    44   22   23 ar
    45   22   46 1
    46   23   24 ar
    47   23   47 1
    48   24   25 ar
    49   24   48 1
    50   25   26 1
    51   27   28 1
    52   27   29 am
    53   29   30 2
    54   31   49 1
    55   31   50 1
@<TRIPOS>MOLECULE
CHEMBL522892__1
   50    54     0     0     0
SMALL
USER_CHARGES

@<TRIPOS>ATOM
      1 C1          0.8730    0.3059   -1.4180 C.3       1 <0>         0.0243
      2 N1          0.7577   -1.1443   -1.2136 N.3       1 <0>        -0.5426
      3 C2         -0.6486   -1.5684   -1.2321 C.3       1 <0>         0.0377
      4 C3         -0.7177   -3.0988   -1.1981 C.3       1 <0>         0.1263
      5 N2          0.0607   -3.5761   -0.0450 N.pl3     1 <0>        -0.6287
      6 C4          1.4376   -3.0848    0.1165 C.3       1 <0>         0.1258
      7 C5          1.4218   -1.5549    0.0307 C.3       1 <0>         0.0388
      8 C6         -0.4939   -4.4730    0.8738 C.ar      1 <0>         0.2365
      9 C7         -1.8329   -4.8416    0.7616 C.ar      1 <0>        -0.1892
     10 C8         -2.3899   -5.7158    1.6508 C.ar      1 <0>        -0.0222
     11 C9         -1.6146   -6.2498    2.6851 C.ar      1 <0>         0.0050
     12 C10        -0.2632   -5.8802    2.8006 C.ar      1 <0>         0.1008
     13 C11         0.2922   -4.9955    1.8882 C.ar      1 <0>        -0.2075
     14 N3          0.2314   -6.5589    3.8998 N.pl3     1 <0>        -0.5864
     15 H1          1.1375   -6.5154    4.2434 H         1 <0>         0.4318
     16 C12        -0.7992   -7.3041    4.4133 C.2       1 <0>         0.3648
     17 N4         -1.8816   -7.1175    3.6942 N.2       1 <0>        -0.5107
     18 C13        -0.7058   -8.1807    5.5928 C.2       1 <0>        -0.2737
     19 C14        -1.7866   -8.9879    5.9555 C.2       1 <0>         0.3579
     20 C15        -1.6442   -9.8438    7.1389 C.ar      1 <0>        -0.1804
     21 C16        -0.4354   -9.8200    7.8579 C.ar      1 <0>         0.2398
     22 C17        -0.2926  -10.6278    8.9801 C.ar      1 <0>        -0.1747
     23 C18        -1.3304  -11.4436    9.3796 C.ar      1 <0>        -0.0248
     24 C19        -2.5232  -11.4696    8.6734 C.ar      1 <0>        -0.1838
     25 C20        -2.6894  -10.6760    7.5566 C.ar      1 <0>         0.1678
     26 F1         -3.8529  -10.7029    6.8704 F         1 <0>        -0.1214
     27 N5          0.5956   -8.9983    7.4466 N.am      1 <0>        -0.6338
     28 H2          1.4243   -8.9907    7.9506 H         1 <0>         0.4215
     29 C21         0.4811   -8.2146    6.3618 C.2       1 <0>         0.5763
     30 O1          1.4212   -7.5111    6.0350 O.2       1 <0>        -0.5540
     31 N6         -2.9506   -8.9803    5.2249 N.pl3     1 <0>        -0.8096
     32 H3          1.9258    0.5820   -1.4762 H         1 <0>         0.0703
     33 H4          0.3729    0.5828   -2.3461 H         1 <0>         0.0703
     34 H5          0.4058    0.8287   -0.5835 H         1 <0>         0.0257
     35 H6         -1.1627   -1.1616   -0.3612 H         1 <0>         0.0389
     36 H7         -1.1269   -1.2028   -2.1408 H         1 <0>         0.0861
     37 H8         -1.7554   -3.4163   -1.0960 H         1 <0>         0.0886
     38 H9         -0.2963   -3.5049   -2.1177 H         1 <0>         0.0708
     39 H10         1.8249   -3.3932    1.0876 H         1 <0>         0.0860
     40 H11         2.0662   -3.4896   -0.6768 H         1 <0>         0.0703
     41 H12         2.4451   -1.1796    0.0378 H         1 <0>         0.0855
     42 H13         0.8789   -1.1484    0.8840 H         1 <0>         0.0386
     43 H14        -2.4358   -4.4320   -0.0353 H         1 <0>         0.1294
     44 H15        -3.4289   -5.9944    1.5554 H         1 <0>         0.1285
     45 H16         1.3310   -4.7118    1.9707 H         1 <0>         0.1216
     46 H17         0.6315  -10.6169    9.5390 H         1 <0>         0.1468
     47 H18        -1.2125  -12.0692   10.2520 H         1 <0>         0.1482
     48 H19        -3.3264  -12.1138    8.9991 H         1 <0>         0.1484
     49 H20        -2.9336   -8.7292    4.2881 H         1 <0>         0.4276
     50 H21        -3.7891   -9.2261    5.6460 H         1 <0>         0.4068
@<TRIPOS>BOND
     1    1    2 1
     2    1   32 1
     3    1   33 1
     4    1   34 1
     5    2    7 1
     6    2    3 1
     7    3    4 1
     8    3   35 1
     9    3   36 1
    10    4    5 1
    11    4   37 1
    12    4   38 1
    13    5    6 1
    14    5    8 1
    15    6    7 1
    16    6   39 1
    17    6   40 1
    18    7   41 1
    19    7   42 1
    20    8   13 ar
    21    8    9 ar
    22    9   10 ar
    23    9   43 1
    24   10   11 ar
    25   10   44 1
    26   11   17 1
    27   11   12 ar
    28   12   13 ar
    29   12   14 1
    30   13   45 1
    31   14   15 1
    32   14   16 1
    33   16   17 2
    34   16   18 1
    35   18   29 1
    36   18   19 2
    37   19   20 1
    38   19   31 1
    39   20   25 ar
    40   20   21 ar
    41   21   22 ar
    42   21   27 1
    43   22   23 ar
    44   22   46 1
    45   23   24 ar
    46   23   47 1
    47   24   25 ar
    48   24   48 1
    49   25   26 1
    50   27   28 1
    51   27   29 am
    52   29   30 2
    53   31   49 1
    54   31   50 1
@<TRIPOS>MOLECULE
CHEMBL261849
   49    51     0     0     0
SMALL
USER_CHARGES

@<TRIPOS>ATOM
      1 C1         -0.0173    1.4248    0.0099 C.3       1 <0>         0.0256
      2 O1          0.0021   -0.0041    0.0020 O.3       1 <0>        -0.3162
      3 C2          0.6058   -0.6071   -1.0557 C.ar      1 <0>         0.1382
      4 C3          1.1730    0.1607   -2.0624 C.ar      1 <0>        -0.2117
      5 C4          1.7865   -0.4547   -3.1363 C.ar      1 <0>        -0.0528
      6 C5          1.8352   -1.8346   -3.2086 C.ar      1 <0>        -0.1345
      7 C6          1.2702   -2.6021   -2.2068 C.ar      1 <0>        -0.0533
      8 C7          0.6609   -1.9915   -1.1277 C.ar      1 <0>        -0.1549
      9 C8          2.5046   -2.5033   -4.3815 C.3       1 <0>         0.1059
     10 O2          3.8879   -2.7083   -4.0871 O.3       1 <0>        -0.2986
     11 C9          4.6418   -3.3056   -5.0485 C.ar      1 <0>         0.0989
     12 C10         4.0640   -3.6809   -6.2507 C.ar      1 <0>        -0.1693
     13 C11         4.8318   -4.2876   -7.2271 C.ar      1 <0>        -0.1081
     14 C12         6.1765   -4.5218   -7.0071 C.ar      1 <0>        -0.0758
     15 C13         6.7591   -4.1504   -5.8097 C.ar      1 <0>        -0.1702
     16 C14         5.9965   -3.5362   -4.8293 C.ar      1 <0>         0.1039
     17 O3          6.5694   -3.1647   -3.6532 O.3       1 <0>        -0.3042
     18 C15         7.9645   -3.4327   -3.4979 C.3       1 <0>         0.0252
     19 C16         7.0088   -5.1840   -8.0747 C.3       1 <0>        -0.0119
     20 C17         7.5977   -4.1311   -8.9778 C.ar      1 <0>        -0.3053
     21 C18         6.9659   -3.7752  -10.1534 C.ar      1 <0>         0.2231
     22 N1          7.5091   -2.8455  -10.9254 N.ar      1 <0>        -0.6047
     23 C19         8.6457   -2.2561  -10.5846 C.ar      1 <0>         0.6014
     24 N2          9.2827   -2.5690   -9.4665 N.ar      1 <0>        -0.6270
     25 C20         8.7914   -3.4889   -8.6422 C.ar      1 <0>         0.4873
     26 N3          9.4569   -3.8100   -7.4704 N.pl3     1 <0>        -0.8368
     27 N4          9.1809   -1.2896  -11.4182 N.pl3     1 <0>        -0.8219
     28 H1          1.0053    1.8021    0.0021 H         1 <0>         0.0570
     29 H2         -0.5445    1.7859   -0.8732 H         1 <0>         0.0570
     30 H3         -0.5275    1.7763    0.9067 H         1 <0>         0.1022
     31 H4          1.1347    1.2385   -2.0068 H         1 <0>         0.1312
     32 H5          2.2283    0.1425   -3.9203 H         1 <0>         0.1269
     33 H6          1.3092   -3.6798   -2.2657 H         1 <0>         0.1321
     34 H7          0.2237   -2.5913   -0.3432 H         1 <0>         0.1345
     35 H8          2.0276   -3.4646   -4.5726 H         1 <0>         0.0709
     36 H9          2.4108   -1.8695   -5.2632 H         1 <0>         0.0693
     37 H10         3.0136   -3.4997   -6.4248 H         1 <0>         0.1356
     38 H11         4.3802   -4.5796   -8.1637 H         1 <0>         0.1284
     39 H12         7.8097   -4.3349   -5.6402 H         1 <0>         0.1272
     40 H13         8.2939   -3.0876   -2.5179 H         1 <0>         0.1013
     41 H14         8.1402   -4.5050   -3.5835 H         1 <0>         0.0545
     42 H15         8.5234   -2.9099   -4.2740 H         1 <0>         0.0531
     43 H16         7.8127   -5.7532   -7.6078 H         1 <0>         0.0727
     44 H17         6.3811   -5.8554   -8.6605 H         1 <0>         0.0882
     45 H18         6.0392   -4.2499  -10.4404 H         1 <0>         0.1641
     46 H19         9.0942   -4.4853   -6.8761 H         1 <0>         0.4078
     47 H20        10.2856   -3.3595   -7.2442 H         1 <0>         0.4061
     48 H21         8.7245   -1.0513  -12.2403 H         1 <0>         0.4152
     49 H22        10.0124   -0.8504  -11.1803 H         1 <0>         0.4128
@<TRIPOS>BOND
     1    1    2 1
     2    1   28 1
     3    1   29 1
     4    1   30 1
     5    2    3 1
     6    3    8 ar
     7    3    4 ar
     8    4    5 ar
     9    4   31 1
    10    5    6 ar
    11    5   32 1
    12    6    7 ar
    13    6    9 1
    14    7    8 ar
    15    7   33 1
    16    8   34 1
    17    9   10 1
    18    9   35 1
    19    9   36 1
    20   10   11 1
    21   11   16 ar
    22   11   12 ar
    23   12   13 ar
    24   12   37 1
    25   13   14 ar
    26   13   38 1
    27   14   15 ar
    28   14   19 1
    29   15   16 ar
    30   15   39 1
    31   16   17 1
    32   17   18 1
    33   18   40 1
    34   18   41 1
    35   18   42 1
    36   19   20 1
    37   19   43 1
    38   19   44 1
    39   20   25 ar
    40   20   21 ar
    41   21   22 ar
    42   21   45 1
    43   22   23 ar
    44   23   24 ar
    45   23   27 1
    46   24   25 ar
    47   25   26 1
    48   26   46 1
    49   26   47 1
    50   27   48 1
    51   27   49 1
@<TRIPOS>MOLECULE
CHEMBL261849__1
   50    52     0     0     0
SMALL
USER_CHARGES

@<TRIPOS>ATOM
      1 C1         -0.0173    1.4248    0.0099 C.3       1 <0>         0.0248
      2 O1          0.0021   -0.0041    0.0020 O.3       1 <0>        -0.3141
      3 C2         -1.2003   -0.6375    0.0101 C.ar      1 <0>         0.1443
      4 C3         -2.3746    0.1011    0.0195 C.ar      1 <0>        -0.2123
      5 C4         -3.5956   -0.5451    0.0272 C.ar      1 <0>        -0.0521
      6 C5         -3.6478   -1.9268    0.0260 C.ar      1 <0>        -0.1433
      7 C6         -2.4788   -2.6651    0.0172 C.ar      1 <0>        -0.0518
      8 C7         -1.2554   -2.0237    0.0032 C.ar      1 <0>        -0.1542
      9 C8         -4.9811   -2.6292    0.0350 C.3       1 <0>         0.1073
     10 O2         -5.4124   -2.8497   -1.3094 O.3       1 <0>        -0.2942
     11 C9         -6.6065   -3.4778   -1.4796 C.ar      1 <0>         0.1170
     12 C10        -7.3492   -3.8680   -0.3768 C.ar      1 <0>        -0.1705
     13 C11        -8.5630   -4.5060   -0.5516 C.ar      1 <0>        -0.1036
     14 C12        -9.0386   -4.7567   -1.8253 C.ar      1 <0>        -0.1054
     15 C13        -8.3024   -4.3705   -2.9298 C.ar      1 <0>        -0.1731
     16 C14        -7.0878   -3.7250   -2.7616 C.ar      1 <0>         0.1098
     17 O3         -6.3652   -3.3391   -3.8471 O.3       1 <0>        -0.2984
     18 C15        -6.9212   -3.6256   -5.1319 C.3       1 <0>         0.0236
     19 C16       -10.3623   -5.4530   -2.0101 C.3       1 <0>        -0.0244
     20 C17       -11.4649   -4.4276   -2.0722 C.ar      1 <0>        -0.2201
     21 C18       -12.1760   -4.0855   -0.9385 C.ar      1 <0>         0.2078
     22 N1        -13.1392   -3.1800   -1.0262 N.ar      1 <0>        -0.5695
     23 C19       -13.4273   -2.6019   -2.1831 C.ar      1 <0>         0.6613
     24 N2        -12.7696   -2.9023   -3.2928 N.ar      1 <0>        -0.5731
     25 C20       -11.7871   -3.7975   -3.2760 C.ar      1 <0>         0.5359
     26 N3        -11.0970   -4.1054   -4.4371 N.pl3     1 <0>        -0.7802
     27 N4        -14.4410   -1.6611   -2.2334 N.pl3     1 <0>        -0.7919
     28 H1          1.0053    1.8021    0.0021 H         1 <0>         0.1047
     29 H2         -0.5445    1.7859   -0.8732 H         1 <0>         0.0577
     30 H3         -0.5275    1.7763    0.9067 H         1 <0>         0.0579
     31 H4         -2.3343    1.1803    0.0211 H         1 <0>         0.1326
     32 H5         -4.5101    0.0294    0.0345 H         1 <0>         0.1254
     33 H6         -2.5223   -3.7443    0.0166 H         1 <0>         0.1321
     34 H7         -0.3427   -2.6008   -0.0082 H         1 <0>         0.1366
     35 H8         -4.8840   -3.5865    0.5470 H         1 <0>         0.0737
     36 H9         -5.7136   -2.0117    0.5548 H         1 <0>         0.0705
     37 H10        -6.9796   -3.6739    0.6192 H         1 <0>         0.1413
     38 H11        -9.1410   -4.8096    0.3088 H         1 <0>         0.1300
     39 H12        -8.6760   -4.5679   -3.9237 H         1 <0>         0.1257
     40 H13        -7.0561   -4.7020   -5.2376 H         1 <0>         0.0575
     41 H14        -7.8856   -3.1272   -5.2298 H         1 <0>         0.0507
     42 H15        -6.2459   -3.2661   -5.9084 H         1 <0>         0.1075
     43 H16       -10.3455   -6.0251   -2.9377 H         1 <0>         0.0945
     44 H17       -10.5390   -6.1261   -1.1711 H         1 <0>         0.1104
     45 H18       -11.9495   -4.5513    0.0091 H         1 <0>         0.2154
     46 H19       -10.3842   -4.7630   -4.4177 H         1 <0>         0.4275
     47 H20       -11.3266   -3.6635   -5.2695 H         1 <0>         0.4282
     48 H21       -14.9306   -1.4322   -1.4279 H         1 <0>         0.4307
     49 H22       -14.6618   -1.2305   -3.0740 H         1 <0>         0.4448
     50 H23       -13.6408   -2.9371   -0.2323 H         1 <0>         0.4448
@<TRIPOS>BOND
     1    1    2 1
     2    1   28 1
     3    1   29 1
     4    1   30 1
     5    2    3 1
     6    3    8 ar
     7    3    4 ar
     8    4    5 ar
     9    4   31 1
    10    5    6 ar
    11    5   32 1
    12    6    7 ar
    13    6    9 1
    14    7    8 ar
    15    7   33 1
    16    8   34 1
    17    9   10 1
    18    9   35 1
    19    9   36 1
    20   10   11 1
    21   11   16 ar
    22   11   12 ar
    23   12   13 ar
    24   12   37 1
    25   13   14 ar
    26   13   38 1
    27   14   15 ar
    28   14   19 1
    29   15   16 ar
    30   15   39 1
    31   16   17 1
    32   17   18 1
    33   18   40 1
    34   18   41 1
    35   18   42 1
    36   19   20 1
    37   19   43 1
    38   19   44 1
    39   20   25 ar
    40   20   21 ar
    41   21   22 ar
    42   21   45 1
    43   22   23 ar
    44   22   50 1
    45   23   24 ar
    46   23   27 1
    47   24   25 ar
    48   25   26 1
    49   26   46 1
    50   26   47 1
    51   27   48 1
    52   27   49 1
@<TRIPOS>MOLECULE
CHEMBL480813
   62    65     0     0     0
SMALL
USER_CHARGES

@<TRIPOS>ATOM
      1 C1          5.1818   -0.6680    0.5219 C.3       1 <0>         0.0174
      2 O1          4.9856   -2.0024    0.0497 O.3       1 <0>        -0.3052
      3 C2          4.2274   -2.1563   -1.0687 C.ar      1 <0>         0.1122
      4 C3          3.7010   -1.0586   -1.6852 C.ar      1 <0>        -0.1228
      5 C4          2.9188   -1.2138   -2.8394 C.ar      1 <0>        -0.0935
      6 C5          2.6774   -2.5076   -3.3619 C.ar      1 <0>         0.1871
      7 C6          3.2280   -3.6212   -2.7117 C.ar      1 <0>        -0.2300
      8 C7          3.9981   -3.4422   -1.5820 C.ar      1 <0>         0.2978
      9 N1          4.5497   -4.5502   -0.9399 N.pl3     1 <0>        -0.7089
     10 C8          4.3150   -5.8958   -1.4695 C.3       1 <0>         0.0877
     11 C9          5.0256   -6.9229   -0.5857 C.3       1 <0>        -0.0238
     12 N2          4.7902   -8.2722   -1.1168 N.4       1 <0>        -0.3788
     13 C10         3.3603   -8.5904   -1.0237 C.3       1 <0>        -0.0144
     14 C11         3.0974   -9.9619   -1.6495 C.3       1 <0>        -0.1457
     15 C12         3.9080  -11.0229   -0.8996 C.3       1 <0>        -0.1421
     16 C13         5.3906  -10.6413   -0.9397 C.3       1 <0>        -0.1469
     17 C14         5.5685   -9.2447   -0.3403 C.3       1 <0>        -0.0068
     18 N3          1.9307   -2.6620   -4.4660 N.ar      1 <0>        -0.4625
     19 C15         1.4039   -1.6432   -5.0951 C.ar      1 <0>         0.2269
     20 C16         1.5916   -0.3253   -4.6483 C.ar      1 <0>        -0.2029
     21 C17         2.3618   -0.0931   -3.4979 C.ar      1 <0>         0.3875
     22 N4          2.5693    1.1860   -3.0259 N.pl3     1 <0>        -0.6998
     23 C18         3.6460    1.9404   -3.5012 C.ar      1 <0>         0.2294
     24 C19         4.4357    1.4521   -4.5345 C.ar      1 <0>        -0.1721
     25 C20         5.4986    2.1995   -5.0026 C.ar      1 <0>        -0.0537
     26 C21         5.7785    3.4332   -4.4441 C.ar      1 <0>        -0.1298
     27 C22         4.9947    3.9239   -3.4146 C.ar      1 <0>         0.0138
     28 C23         3.9252    3.1829   -2.9449 C.ar      1 <0>        -0.0845
     29 Cl1         2.9377    3.8010   -1.6579 Cl        1 <0>        -0.0341
     30 Cl2         5.3499    5.4732   -2.7165 Cl        1 <0>        -0.0239
     31 C24         0.9873    0.8003   -5.3781 C.2       1 <0>         0.5637
     32 O2          1.2366    1.9439   -5.0469 O.2       1 <0>        -0.4811
     33 N5          0.1575    0.5643   -6.4136 N.am      1 <0>        -0.8410
     34 H1          5.6758   -0.0782   -0.2502 H         1 <0>         0.0712
     35 H2          4.2163   -0.2208    0.7587 H         1 <0>         0.0708
     36 H3          5.8028   -0.6871    1.4175 H         1 <0>         0.1227
     37 H4          3.8858   -0.0726   -1.2852 H         1 <0>         0.1695
     38 H5          3.0536   -4.6150   -3.0970 H         1 <0>         0.1617
     39 H6          5.0888   -4.4301   -0.1425 H         1 <0>         0.4284
     40 H7          3.2446   -6.1017   -1.4771 H         1 <0>         0.0947
     41 H8          4.7044   -5.9594   -2.4856 H         1 <0>         0.0952
     42 H9          6.0959   -6.7171   -0.5781 H         1 <0>         0.1438
     43 H10         4.6361   -6.8593    0.4303 H         1 <0>         0.1422
     44 H11         3.0594   -8.6058    0.0238 H         1 <0>         0.1331
     45 H12         2.7846   -7.8327   -1.5552 H         1 <0>         0.1269
     46 H13         2.0355  -10.1971   -1.5778 H         1 <0>         0.1150
     47 H14         3.3978   -9.9475   -2.6972 H         1 <0>         0.0888
     48 H15         3.5725  -11.0732    0.1363 H         1 <0>         0.0842
     49 H16         3.7683  -11.9929   -1.3767 H         1 <0>         0.0984
     50 H17         5.9678  -11.3621   -0.3607 H         1 <0>         0.1175
     51 H18         5.7385  -10.6410   -1.9727 H         1 <0>         0.0895
     52 H19         6.6230   -8.9699   -0.3671 H         1 <0>         0.1340
     53 H20         5.2205   -9.2461    0.6927 H         1 <0>         0.1324
     54 H21         0.8105   -1.8201   -5.9800 H         1 <0>         0.2136
     55 H22         1.9681    1.5622   -2.3642 H         1 <0>         0.4335
     56 H23         4.2189    0.4885   -4.9713 H         1 <0>         0.1217
     57 H24         6.1124    1.8196   -5.8060 H         1 <0>         0.1449
     58 H25         6.6108    4.0149   -4.8119 H         1 <0>         0.1501
     59 H26        -0.0413   -0.3476   -6.6777 H         1 <0>         0.3976
     60 H27        -0.2408    1.3064   -6.8948 H         1 <0>         0.4247
     61 H28         5.0783   -8.3071   -2.0832 H         1 <0>         0.4245
     62 H29         1.7772   -3.5565   -4.8084 H         1 <0>         0.4501
@<TRIPOS>BOND
     1    1    2 1
     2    1   34 1
     3    1   35 1
     4    1   36 1
     5    2    3 1
     6    3    8 ar
     7    3    4 ar
     8    4    5 ar
     9    4   37 1
    10    5   21 ar
    11    5    6 ar
    12    6    7 ar
    13    6   18 ar
    14    7    8 ar
    15    7   38 1
    16    8    9 1
    17    9   10 1
    18    9   39 1
    19   10   11 1
    20   10   40 1
    21   10   41 1
    22   11   12 1
    23   11   42 1
    24   11   43 1
    25   12   17 1
    26   12   13 1
    27   12   61 1
    28   13   14 1
    29   13   44 1
    30   13   45 1
    31   14   15 1
    32   14   46 1
    33   14   47 1
    34   15   16 1
    35   15   48 1
    36   15   49 1
    37   16   17 1
    38   16   50 1
    39   16   51 1
    40   17   52 1
    41   17   53 1
    42   18   19 ar
    43   18   62 1
    44   19   20 ar
    45   19   54 1
    46   20   21 ar
    47   20   31 1
    48   21   22 1
    49   22   23 1
    50   22   55 1
    51   23   28 ar
    52   23   24 ar
    53   24   25 ar
    54   24   56 1
    55   25   26 ar
    56   25   57 1
    57   26   27 ar
    58   26   58 1
    59   27   28 ar
    60   27   30 1
    61   28   29 1
    62   31   32 2
    63   31   33 am
    64   33   59 1
    65   33   60 1
@<TRIPOS>MOLECULE
CHEMBL480813__1
   61    64     0     0     0
SMALL
USER_CHARGES

@<TRIPOS>ATOM
      1 C1          5.1818   -0.6680    0.5219 C.3       1 <0>         0.0257
      2 O1          4.9856   -2.0024    0.0497 O.3       1 <0>        -0.3193
      3 C2          4.2274   -2.1563   -1.0687 C.ar      1 <0>         0.0912
      4 C3          3.7010   -1.0586   -1.6852 C.ar      1 <0>        -0.1412
      5 C4          2.9188   -1.2138   -2.8394 C.ar      1 <0>        -0.1114
      6 C5          2.6774   -2.5076   -3.3619 C.ar      1 <0>         0.1728
      7 C6          3.2280   -3.6212   -2.7117 C.ar      1 <0>        -0.1683
      8 C7          3.9981   -3.4422   -1.5820 C.ar      1 <0>         0.2308
      9 N1          4.5497   -4.5502   -0.9399 N.pl3     1 <0>        -0.7339
     10 C8          4.3150   -5.8958   -1.4695 C.3       1 <0>         0.1004
     11 C9          5.0256   -6.9229   -0.5857 C.3       1 <0>        -0.0212
     12 N2          4.7902   -8.2722   -1.1168 N.4       1 <0>        -0.3786
     13 C10         3.3603   -8.5904   -1.0237 C.3       1 <0>        -0.0150
     14 C11         3.0974   -9.9619   -1.6495 C.3       1 <0>        -0.1456
     15 C12         3.9080  -11.0229   -0.8996 C.3       1 <0>        -0.1402
     16 C13         5.3906  -10.6413   -0.9397 C.3       1 <0>        -0.1462
     17 C14         5.5685   -9.2447   -0.3403 C.3       1 <0>        -0.0059
     18 N3          1.9307   -2.6620   -4.4660 N.ar      1 <0>        -0.4758
     19 C15         1.4039   -1.6432   -5.0951 C.ar      1 <0>         0.1709
     20 C16         1.5916   -0.3253   -4.6483 C.ar      1 <0>        -0.2086
     21 C17         2.3618   -0.0931   -3.4979 C.ar      1 <0>         0.2809
     22 N4          2.5693    1.1860   -3.0259 N.pl3     1 <0>        -0.6843
     23 C18         3.6460    1.9404   -3.5012 C.ar      1 <0>         0.2539
     24 C19         4.4357    1.4521   -4.5345 C.ar      1 <0>        -0.1710
     25 C20         5.4986    2.1995   -5.0026 C.ar      1 <0>        -0.0553
     26 C21         5.7785    3.4332   -4.4441 C.ar      1 <0>        -0.1490
     27 C22         4.9947    3.9239   -3.4146 C.ar      1 <0>         0.0149
     28 C23         3.9252    3.1829   -2.9449 C.ar      1 <0>        -0.0978
     29 Cl1         2.9377    3.8010   -1.6579 Cl        1 <0>        -0.0476
     30 Cl2         5.3499    5.4732   -2.7165 Cl        1 <0>        -0.0423
     31 C24         0.9873    0.8003   -5.3781 C.2       1 <0>         0.5633
     32 O2          1.2366    1.9439   -5.0469 O.2       1 <0>        -0.5130
     33 N5          0.1575    0.5643   -6.4136 N.am      1 <0>        -0.8491
     34 H1          5.6758   -0.0782   -0.2502 H         1 <0>         0.0618
     35 H2          4.2163   -0.2208    0.7587 H         1 <0>         0.0611
     36 H3          5.8028   -0.6871    1.4175 H         1 <0>         0.1086
     37 H4          3.8858   -0.0726   -1.2852 H         1 <0>         0.1450
     38 H5          3.0536   -4.6150   -3.0970 H         1 <0>         0.1435
     39 H6          5.0888   -4.4301   -0.1425 H         1 <0>         0.4157
     40 H7          3.2446   -6.1017   -1.4771 H         1 <0>         0.0847
     41 H8          4.7044   -5.9594   -2.4856 H         1 <0>         0.0851
     42 H9          6.0959   -6.7171   -0.5781 H         1 <0>         0.1391
     43 H10         4.6361   -6.8593    0.4303 H         1 <0>         0.1374
     44 H11         3.0594   -8.6058    0.0238 H         1 <0>         0.1307
     45 H12         2.7846   -7.8327   -1.5552 H         1 <0>         0.1325
     46 H13         2.0355  -10.1971   -1.5778 H         1 <0>         0.1135
     47 H14         3.3978   -9.9475   -2.6972 H         1 <0>         0.0891
     48 H15         3.5725  -11.0732    0.1363 H         1 <0>         0.0821
     49 H16         3.7683  -11.9929   -1.3767 H         1 <0>         0.0952
     50 H17         5.9678  -11.3621   -0.3607 H         1 <0>         0.1135
     51 H18         5.7385  -10.6410   -1.9727 H         1 <0>         0.0887
     52 H19         6.6230   -8.9699   -0.3671 H         1 <0>         0.1315
     53 H20         5.2205   -9.2461    0.6927 H         1 <0>         0.1297
     54 H21         0.8105   -1.8201   -5.9800 H         1 <0>         0.1661
     55 H22         1.9681    1.5622   -2.3642 H         1 <0>         0.4194
     56 H23         4.2189    0.4885   -4.9713 H         1 <0>         0.1263
     57 H24         6.1124    1.8196   -5.8060 H         1 <0>         0.1387
     58 H25         6.6108    4.0149   -4.8119 H         1 <0>         0.1422
     59 H26        -0.0413   -0.3476   -6.6777 H         1 <0>         0.3995
     60 H27        -0.2408    1.3064   -6.8948 H         1 <0>         0.4106
     61 H28         5.0783   -8.3071   -2.0832 H         1 <0>         0.4248
@<TRIPOS>BOND
     1    1    2 1
     2    1   34 1
     3    1   35 1
     4    1   36 1
     5    2    3 1
     6    3    8 ar
     7    3    4 ar
     8    4    5 ar
     9    4   37 1
    10    5   21 ar
    11    5    6 ar
    12    6    7 ar
    13    6   18 ar
    14    7    8 ar
    15    7   38 1
    16    8    9 1
    17    9   10 1
    18    9   39 1
    19   10   11 1
    20   10   40 1
    21   10   41 1
    22   11   12 1
    23   11   42 1
    24   11   43 1
    25   12   17 1
    26   12   13 1
    27   12   61 1
    28   13   14 1
    29   13   44 1
    30   13   45 1
    31   14   15 1
    32   14   46 1
    33   14   47 1
    34   15   16 1
    35   15   48 1
    36   15   49 1
    37   16   17 1
    38   16   50 1
    39   16   51 1
    40   17   52 1
    41   17   53 1
    42   18   19 ar
    43   19   20 ar
    44   19   54 1
    45   20   21 ar
    46   20   31 1
    47   21   22 1
    48   22   23 1
    49   22   55 1
    50   23   28 ar
    51   23   24 ar
    52   24   25 ar
    53   24   56 1
    54   25   26 ar
    55   25   57 1
    56   26   27 ar
    57   26   58 1
    58   27   28 ar
    59   27   30 1
    60   28   29 1
    61   31   32 2
    62   31   33 am
    63   33   59 1
    64   33   60 1
@<TRIPOS>MOLECULE
CHEMBL456008
   44    46     0     0     0
SMALL
USER_CHARGES

@<TRIPOS>ATOM
      1 C1          1.8717   -4.2328    3.4851 C.3       1 <0>        -0.1084
      2 C2          1.2138   -3.6974    2.2395 C.ar      1 <0>         0.1308
      3 C3          1.2477   -4.4428    1.0767 C.ar      1 <0>        -0.1117
      4 C4          0.6336   -3.9350   -0.0721 C.ar      1 <0>        -0.0874
      5 C5          0.0090   -2.6864    0.0106 C.ar      1 <0>        -0.1511
      6 C6          0.0230   -2.0091    1.2142 C.ar      1 <0>         0.1065
      7 N1          0.6092   -2.5267    2.2756 N.ar      1 <0>        -0.4660
      8 C7          0.6447   -4.6979   -1.3416 C.2       1 <0>         0.5623
      9 O1          1.1928   -5.7813   -1.3947 O.2       1 <0>        -0.5048
     10 N2          0.0469   -4.1907   -2.4379 N.am      1 <0>        -0.6662
     11 C8          0.1400   -4.8641   -3.6598 C.ar      1 <0>         0.1458
     12 C9          0.2257   -4.1458   -4.8458 C.ar      1 <0>        -0.1365
     13 C10         0.3181   -4.8139   -6.0507 C.ar      1 <0>        -0.0934
     14 C11         0.3249   -6.1967   -6.0777 C.ar      1 <0>        -0.1224
     15 C12         0.2397   -6.9146   -4.8992 C.ar      1 <0>        -0.0770
     16 C13         0.1529   -6.2525   -3.6900 C.ar      1 <0>        -0.1052
     17 C14         0.2470   -8.4212   -4.9334 C.3       1 <0>         0.1923
     18 H1         -0.1731   -8.8078   -4.0049 H         1 <0>         0.0954
     19 C15         1.6846   -8.9209   -5.0897 C.3       1 <0>        -0.1672
     20 N3         -0.5579   -8.8879   -6.0651 N.pl3     1 <0>        -0.7044
     21 C16        -1.1350  -10.1519   -6.0331 C.ar      1 <0>         0.3819
     22 C17        -0.9540  -10.9743   -4.9234 C.ar      1 <0>        -0.0081
     23 N4         -1.5036  -12.1735   -4.8961 N.ar      1 <0>        -0.3826
     24 C18        -2.2258  -12.5955   -5.9203 C.ar      1 <0>         0.0000
     25 C19        -2.4083  -11.7822   -7.0245 C.ar      1 <0>         0.1808
     26 N5         -1.8643  -10.5762   -7.0570 N.ar      1 <0>        -0.5026
     27 Cl1        -3.3569  -12.3419   -8.3663 Cl        1 <0>        -0.0123
     28 H2          1.1516   -4.8239    4.0509 H         1 <0>         0.0837
     29 H3          2.7187   -4.8603    3.2076 H         1 <0>         0.0798
     30 H4          2.2207   -3.4015    4.0977 H         1 <0>         0.0822
     31 H5          1.7414   -5.4031    1.0554 H         1 <0>         0.1506
     32 H6         -0.4766   -2.2581   -0.8537 H         1 <0>         0.1390
     33 H7         -0.4563   -1.0441    1.2880 H         1 <0>         0.1659
     34 H8         -0.4479   -3.3585   -2.3792 H         1 <0>         0.4132
     35 H9          0.2197   -3.0660   -4.8254 H         1 <0>         0.1293
     36 H10         0.3847   -4.2560   -6.9731 H         1 <0>         0.1320
     37 H11         0.3965   -6.7168   -7.0215 H         1 <0>         0.1243
     38 H12         0.0905   -6.8138   -2.7695 H         1 <0>         0.1434
     39 H13         1.6899  -10.0106   -5.1145 H         1 <0>         0.0658
     40 H14         2.1047   -8.5343   -6.0183 H         1 <0>         0.0659
     41 H15         2.2835   -8.5737   -4.2478 H         1 <0>         0.0772
     42 H16        -0.6881   -8.3147   -6.8367 H         1 <0>         0.4091
     43 H17        -0.3641  -10.6309   -4.0864 H         1 <0>         0.1729
     44 H18        -2.6740  -13.5777   -5.8950 H         1 <0>         0.1768
@<TRIPOS>BOND
     1    1    2 1
     2    1   28 1
     3    1   29 1
     4    1   30 1
     5    2    7 ar
     6    2    3 ar
     7    3    4 ar
     8    3   31 1
     9    4    5 ar
    10    4    8 1
    11    5    6 ar
    12    5   32 1
    13    6    7 ar
    14    6   33 1
    15    8    9 2
    16    8   10 am
    17   10   11 1
    18   10   34 1
    19   11   16 ar
    20   11   12 ar
    21   12   13 ar
    22   12   35 1
    23   13   14 ar
    24   13   36 1
    25   14   15 ar
    26   14   37 1
    27   15   16 ar
    28   15   17 1
    29   16   38 1
    30   17   18 1
    31   17   19 1
    32   17   20 1
    33   19   39 1
    34   19   40 1
    35   19   41 1
    36   20   21 1
    37   20   42 1
    38   21   26 ar
    39   21   22 ar
    40   22   23 ar
    41   22   43 1
    42   23   24 ar
    43   24   25 ar
    44   24   44 1
    45   25   26 ar
    46   25   27 1
@<TRIPOS>MOLECULE
CHEMBL237570
   59    63     0     0     0
SMALL
USER_CHARGES

@<TRIPOS>ATOM
      1 C1         -1.9983    0.6143    0.5496 C.3       1 <0>        -0.1105
      2 C2         -0.9516   -0.4308    0.2613 C.ar      1 <0>        -0.0568
      3 C3         -1.0179   -1.1740   -0.8993 C.ar      1 <0>        -0.0434
      4 C4         -0.0575   -2.1334   -1.1657 C.ar      1 <0>        -0.4456
      5 C5          0.9752   -2.3545   -0.2715 C.ar      1 <0>        -0.0599
      6 C6          1.0532   -1.6184    0.8924 C.ar      1 <0>        -0.1122
      7 C7          0.0903   -0.6450    1.1648 C.ar      1 <0>         0.0135
      8 C8          0.1710    0.1519    2.4074 C.2       1 <0>         0.2474
      9 N1          0.0481    1.4569    2.4839 N.2       1 <0>        -0.4425
     10 C9          0.1751    1.8458    3.7631 C.2       1 <0>         0.0486
     11 C10         0.3905    0.7113    4.5296 C.2       1 <0>         0.0544
     12 N2          0.3794   -0.3528    3.6593 N.pl3     1 <0>        -0.4393
     13 C11         0.5604   -1.7639    4.0090 C.3       1 <0>         0.0601
     14 C12         0.5869    0.6560    5.9907 C.ar      1 <0>        -0.0388
     15 C13        -0.0861   -0.3199    6.7496 C.ar      1 <0>        -0.0986
     16 C14         0.0791   -0.3906    8.0944 C.ar      1 <0>        -0.1061
     17 C15         0.9314    0.5189    8.7486 C.ar      1 <0>        -0.0044
     18 C16         1.1163    0.4629   10.1392 C.ar      1 <0>        -0.1569
     19 C17         1.9565    1.3658   10.7498 C.ar      1 <0>         0.1372
     20 C18         2.6272    2.3379   10.0007 C.ar      1 <0>        -0.1875
     21 C19         2.4660    2.4150    8.6530 C.ar      1 <0>        -0.0581
     22 C20         1.6154    1.5072    7.9956 C.ar      1 <0>        -0.0802
     23 C21         1.4371    1.5619    6.6053 C.ar      1 <0>        -0.0530
     24 O1          2.1361    1.3124   12.0956 O.3       1 <0>        -0.3151
     25 C22         3.0204    2.2764   12.6708 C.3       1 <0>         0.0245
     26 C23         0.0992    3.2368    4.2644 C.ar      1 <0>         0.0451
     27 C24        -0.4594    3.5207    5.5157 C.ar      1 <0>        -0.1573
     28 C25        -0.5101    4.8305    5.9436 C.ar      1 <0>         0.1009
     29 N3         -0.0412    5.8079    5.1910 N.ar      1 <0>        -0.4851
     30 C26         0.4933    5.5838    4.0053 C.ar      1 <0>         0.0993
     31 C27         0.5893    4.3035    3.5025 C.ar      1 <0>        -0.1486
     32 S1         -0.1500   -3.0786   -2.6499 S.o       1 <0>         1.3308
     33 O2          0.5551   -4.2731   -2.3413 O.2       1 <0>        -0.8522
     34 C28         0.8029   -2.1067   -3.8491 C.3       1 <0>        -0.4970
     35 H1         -1.6410    1.5883    0.2155 H         1 <0>         0.0830
     36 H2         -2.9176    0.3634    0.0204 H         1 <0>         0.0685
     37 H3         -2.1935    0.6470    1.6215 H         1 <0>         0.0662
     38 H4         -1.8215   -1.0067   -1.6012 H         1 <0>         0.1448
     39 H5          1.7216   -3.1052   -0.4853 H         1 <0>         0.1314
     40 H6          1.8596   -1.7919    1.5895 H         1 <0>         0.1245
     41 H7          1.6250   -1.9931    4.0552 H         1 <0>         0.0838
     42 H8          0.1043   -1.9592    4.9795 H         1 <0>         0.0942
     43 H9          0.0866   -2.3893    3.2524 H         1 <0>         0.0947
     44 H10        -0.7423   -1.0209    6.2553 H         1 <0>         0.1231
     45 H11        -0.4439   -1.1449    8.6634 H         1 <0>         0.1335
     46 H12         0.6022   -0.2838   10.7261 H         1 <0>         0.1373
     47 H13         3.2817    3.0372   10.4997 H         1 <0>         0.1336
     48 H14         2.9901    3.1716    8.0880 H         1 <0>         0.1330
     49 H15         1.9551    2.3064    6.0190 H         1 <0>         0.1293
     50 H16         3.0737    2.1229   13.7487 H         1 <0>         0.1031
     51 H17         4.0142    2.1617   12.2380 H         1 <0>         0.0571
     52 H18         2.6479    3.2798   12.4646 H         1 <0>         0.0580
     53 H19        -0.8454    2.7258    6.1367 H         1 <0>         0.1340
     54 H20        -0.9396    5.0597    6.9077 H         1 <0>         0.1557
     55 H21         0.8647    6.4141    3.4229 H         1 <0>         0.1572
     56 H22         1.0321    4.1269    2.5334 H         1 <0>         0.1377
     57 H23         1.8281   -1.9971   -3.4953 H         1 <0>         0.0816
     58 H24         0.8036   -2.6175   -4.8121 H         1 <0>         0.1086
     59 H25         0.3497   -1.1217   -3.9606 H         1 <0>         0.1130
@<TRIPOS>BOND
     1    1    2 1
     2    1   35 1
     3    1   36 1
     4    1   37 1
     5    2    7 ar
     6    2    3 ar
     7    3    4 ar
     8    3   38 1
     9    4    5 ar
    10    4   32 1
    11    5    6 ar
    12    5   39 1
    13    6    7 ar
    14    6   40 1
    15    7    8 1
    16    8   12 1
    17    8    9 2
    18    9   10 1
    19   10   11 2
    20   10   26 1
    21   11   12 1
    22   11   14 1
    23   12   13 1
    24   13   41 1
    25   13   42 1
    26   13   43 1
    27   14   23 ar
    28   14   15 ar
    29   15   16 ar
    30   15   44 1
    31   16   17 ar
    32   16   45 1
    33   17   22 ar
    34   17   18 ar
    35   18   19 ar
    36   18   46 1
    37   19   20 ar
    38   19   24 1
    39   20   21 ar
    40   20   47 1
    41   21   22 ar
    42   21   48 1
    43   22   23 ar
    44   23   49 1
    45   24   25 1
    46   25   50 1
    47   25   51 1
    48   25   52 1
    49   26   31 ar
    50   26   27 ar
    51   27   28 ar
    52   27   53 1
    53   28   29 ar
    54   28   54 1
    55   29   30 ar
    56   30   31 ar
    57   30   55 1
    58   31   56 1
    59   32   33 2
    60   32   34 1
    61   34   57 1
    62   34   58 1
    63   34   59 1
@<TRIPOS>MOLECULE
CHEMBL237570__1
   59    63     0     0     0
SMALL
USER_CHARGES

@<TRIPOS>ATOM
      1 C1         -1.9983    0.6143    0.5496 C.3       1 <0>        -0.1119
      2 C2         -0.9516   -0.4308    0.2613 C.ar      1 <0>        -0.0542
      3 C3         -1.0179   -1.1740   -0.8993 C.ar      1 <0>        -0.0547
      4 C4         -0.0575   -2.1334   -1.1657 C.ar      1 <0>        -0.4463
      5 C5          0.9752   -2.3545   -0.2715 C.ar      1 <0>        -0.0483
      6 C6          1.0532   -1.6184    0.8924 C.ar      1 <0>        -0.1151
      7 C7          0.0903   -0.6450    1.1648 C.ar      1 <0>         0.0131
      8 C8          0.1710    0.1519    2.4074 C.2       1 <0>         0.2478
      9 N1          0.0481    1.4569    2.4839 N.2       1 <0>        -0.4438
     10 C9          0.1751    1.8458    3.7631 C.2       1 <0>         0.0485
     11 C10         0.3905    0.7113    4.5296 C.2       1 <0>         0.0545
     12 N2          0.3794   -0.3528    3.6593 N.pl3     1 <0>        -0.4393
     13 C11         0.5604   -1.7639    4.0090 C.3       1 <0>         0.0601
     14 C12         0.5869    0.6560    5.9907 C.ar      1 <0>        -0.0385
     15 C13        -0.0861   -0.3199    6.7496 C.ar      1 <0>        -0.0985
     16 C14         0.0791   -0.3906    8.0944 C.ar      1 <0>        -0.1061
     17 C15         0.9314    0.5189    8.7486 C.ar      1 <0>        -0.0044
     18 C16         1.1163    0.4629   10.1392 C.ar      1 <0>        -0.1570
     19 C17         1.9565    1.3658   10.7498 C.ar      1 <0>         0.1372
     20 C18         2.6272    2.3379   10.0007 C.ar      1 <0>        -0.1876
     21 C19         2.4660    2.4150    8.6530 C.ar      1 <0>        -0.0580
     22 C20         1.6154    1.5072    7.9956 C.ar      1 <0>        -0.0802
     23 C21         1.4371    1.5619    6.6053 C.ar      1 <0>        -0.0529
     24 O1          2.1361    1.3124   12.0956 O.3       1 <0>        -0.3151
     25 C22         3.0204    2.2764   12.6708 C.3       1 <0>         0.0245
     26 C23         0.0992    3.2368    4.2644 C.ar      1 <0>         0.0448
     27 C24        -0.4594    3.5207    5.5157 C.ar      1 <0>        -0.1574
     28 C25        -0.5101    4.8305    5.9436 C.ar      1 <0>         0.1009
     29 N3         -0.0412    5.8079    5.1910 N.ar      1 <0>        -0.4851
     30 C26         0.4933    5.5838    4.0053 C.ar      1 <0>         0.0993
     31 C27         0.5893    4.3035    3.5025 C.ar      1 <0>        -0.1486
     32 S1         -0.1500   -3.0786   -2.6499 S.o       1 <0>         1.3305
     33 O2         -1.5274   -3.0400   -2.9968 O.2       1 <0>        -0.8510
     34 C28         0.8029   -2.1067   -3.8491 C.3       1 <0>        -0.4972
     35 H1         -1.6410    1.5883    0.2155 H         1 <0>         0.0824
     36 H2         -2.9176    0.3634    0.0204 H         1 <0>         0.0649
     37 H3         -2.1935    0.6470    1.6215 H         1 <0>         0.0677
     38 H4         -1.8215   -1.0067   -1.6012 H         1 <0>         0.1327
     39 H5          1.7216   -3.1052   -0.4853 H         1 <0>         0.1438
     40 H6          1.8596   -1.7919    1.5895 H         1 <0>         0.1294
     41 H7          1.6250   -1.9931    4.0552 H         1 <0>         0.0851
     42 H8          0.1043   -1.9592    4.9795 H         1 <0>         0.0933
     43 H9          0.0866   -2.3893    3.2524 H         1 <0>         0.0952
     44 H10        -0.7423   -1.0209    6.2553 H         1 <0>         0.1231
     45 H11        -0.4439   -1.1449    8.6634 H         1 <0>         0.1334
     46 H12         0.6022   -0.2838   10.7261 H         1 <0>         0.1372
     47 H13         3.2817    3.0372   10.4997 H         1 <0>         0.1335
     48 H14         2.9901    3.1716    8.0880 H         1 <0>         0.1330
     49 H15         1.9551    2.3064    6.0190 H         1 <0>         0.1293
     50 H16         3.0737    2.1229   13.7487 H         1 <0>         0.1031
     51 H17         4.0142    2.1617   12.2380 H         1 <0>         0.0572
     52 H18         2.6479    3.2798   12.4646 H         1 <0>         0.0579
     53 H19        -0.8454    2.7258    6.1367 H         1 <0>         0.1341
     54 H20        -0.9396    5.0597    6.9077 H         1 <0>         0.1558
     55 H21         0.8647    6.4141    3.4229 H         1 <0>         0.1572
     56 H22         1.0321    4.1269    2.5334 H         1 <0>         0.1376
     57 H23         1.8281   -1.9971   -3.4953 H         1 <0>         0.1123
     58 H24         0.8036   -2.6175   -4.8121 H         1 <0>         0.1085
     59 H25         0.3497   -1.1217   -3.9606 H         1 <0>         0.0822
@<TRIPOS>BOND
     1    1    2 1
     2    1   35 1
     3    1   36 1
     4    1   37 1
     5    2    7 ar
     6    2    3 ar
     7    3    4 ar
     8    3   38 1
     9    4    5 ar
    10    4   32 1
    11    5    6 ar
    12    5   39 1
    13    6    7 ar
    14    6   40 1
    15    7    8 1
    16    8   12 1
    17    8    9 2
    18    9   10 1
    19   10   11 2
    20   10   26 1
    21   11   12 1
    22   11   14 1
    23   12   13 1
    24   13   41 1
    25   13   42 1
    26   13   43 1
    27   14   23 ar
    28   14   15 ar
    29   15   16 ar
    30   15   44 1
    31   16   17 ar
    32   16   45 1
    33   17   22 ar
    34   17   18 ar
    35   18   19 ar
    36   18   46 1
    37   19   20 ar
    38   19   24 1
    39   20   21 ar
    40   20   47 1
    41   21   22 ar
    42   21   48 1
    43   22   23 ar
    44   23   49 1
    45   24   25 1
    46   25   50 1
    47   25   51 1
    48   25   52 1
    49   26   31 ar
    50   26   27 ar
    51   27   28 ar
    52   27   53 1
    53   28   29 ar
    54   28   54 1
    55   29   30 ar
    56   30   31 ar
    57   30   55 1
    58   31   56 1
    59   32   33 2
    60   32   34 1
    61   34   57 1
    62   34   58 1
    63   34   59 1
@<TRIPOS>MOLECULE
CHEMBL576982
   72    77     0     0     0
SMALL
USER_CHARGES

@<TRIPOS>ATOM
      1 C1         -0.1079    3.8176   -1.6987 C.3       1 <0>        -0.1418
      2 C2         -0.4358    2.4000   -1.2255 C.3       1 <0>         0.0021
      3 C3         -0.0309    2.2457    0.2419 C.3       1 <0>        -0.1418
      4 C4         -1.9383    2.1492   -1.3690 C.3       1 <0>        -0.1480
      5 C5          0.3222    1.4028   -2.0633 C.2       1 <0>         0.0920
      6 C6          1.6598    1.3216   -2.1752 C.2       1 <0>        -0.2780
      7 C7          1.9626    0.2564   -3.0529 C.2       1 <0>         0.3489
      8 N1          0.8328   -0.2739   -3.4459 N.2       1 <0>        -0.3559
      9 O1         -0.2208    0.4382   -2.8225 O.3       1 <0>        -0.0644
     10 N2          3.2394   -0.1566   -3.4329 N.am      1 <0>        -0.6399
     11 C8          4.3250    0.4806   -2.9512 C.2       1 <0>         0.7156
     12 O2          4.1912    1.4155   -2.1855 O.2       1 <0>        -0.5387
     13 N3          5.5588    0.0815   -3.3184 N.am      1 <0>        -0.6735
     14 C9          6.6815    0.8047   -2.9002 C.ar      1 <0>         0.1591
     15 C10         6.6984    1.3925   -1.6413 C.ar      1 <0>        -0.1146
     16 C11         7.8035    2.1056   -1.2269 C.ar      1 <0>        -0.0690
     17 C12         8.9045    2.2361   -2.0720 C.ar      1 <0>        -0.0169
     18 C13         8.8852    1.6451   -3.3344 C.ar      1 <0>        -0.0868
     19 C14         7.7797    0.9289   -3.7423 C.ar      1 <0>        -0.1376
     20 C15        10.0944    3.0031   -1.6289 C.2       1 <0>         0.0756
     21 C16        11.2216    3.2097   -2.3503 C.2       1 <0>        -0.0212
     22 N4         12.0829    3.9752   -1.5694 N.pl3     1 <0>        -0.4282
     23 C17        13.3670    4.5214   -1.7098 C.ar      1 <0>         0.0515
     24 C18        14.2061    4.4096   -2.8308 C.ar      1 <0>        -0.0481
     25 C19        15.4489    4.9955   -2.8422 C.ar      1 <0>        -0.1849
     26 C20        15.9152    5.7150   -1.7487 C.ar      1 <0>         0.1578
     27 C21        15.1048    5.8401   -0.6287 C.ar      1 <0>        -0.0867
     28 C22        13.8615    5.2517   -0.6238 C.ar      1 <0>        -0.0868
     29 S1         12.5426    5.1661    0.5628 S.3       1 <0>         0.1697
     30 C23        11.4120    4.1894   -0.4010 C.2       1 <0>         0.1882
     31 N5         10.2405    3.6223   -0.4380 N.2       1 <0>        -0.4247
     32 O3         17.1478    6.2880   -1.7753 O.3       1 <0>        -0.2846
     33 C24        17.9194    6.1122   -2.9651 C.3       1 <0>         0.0602
     34 C25        19.2657    6.8222   -2.8094 C.3       1 <0>         0.0542
     35 N6         20.0289    6.1921   -1.7238 N.3       1 <0>        -0.5307
     36 C26        21.2126    6.9927   -1.3785 C.3       1 <0>         0.0180
     37 C27        21.9440    6.3330   -0.2064 C.3       1 <0>         0.0626
     38 O4         22.2833    4.9890   -0.5584 O.3       1 <0>        -0.3848
     39 C28        21.1539    4.1808   -0.9000 C.3       1 <0>         0.0636
     40 C29        20.4146    4.8187   -2.0791 C.3       1 <0>         0.0125
     41 H1          0.9625    3.9962   -1.5964 H         1 <0>         0.0663
     42 H2         -0.3963    3.9275   -2.7440 H         1 <0>         0.0616
     43 H3         -0.6561    4.5388   -1.0927 H         1 <0>         0.0737
     44 H4         -0.5791    2.9670    0.8479 H         1 <0>         0.0736
     45 H5         -0.2645    1.2358    0.5790 H         1 <0>         0.0618
     46 H6          1.0395    2.4243    0.3441 H         1 <0>         0.0664
     47 H7         -2.2268    2.2592   -2.4143 H         1 <0>         0.0639
     48 H8         -2.1719    1.1394   -1.0319 H         1 <0>         0.0640
     49 H9         -2.4865    2.8705   -0.7630 H         1 <0>         0.0697
     50 H10         2.3774    1.9595   -1.6809 H         1 <0>         0.1838
     51 H11         3.3462   -0.9025   -4.0438 H         1 <0>         0.4197
     52 H12         5.6687   -0.7070   -3.8726 H         1 <0>         0.4123
     53 H13         5.8453    1.2911   -0.9869 H         1 <0>         0.1450
     54 H14         7.8160    2.5629   -0.2486 H         1 <0>         0.1376
     55 H15         9.7368    1.7451   -3.9910 H         1 <0>         0.1287
     56 H16         7.7660    0.4673   -4.7186 H         1 <0>         0.1310
     57 H17        11.4166    2.8469   -3.3487 H         1 <0>         0.1836
     58 H18        13.8702    3.8556   -3.6949 H         1 <0>         0.1351
     59 H19        16.0748    4.8946   -3.7165 H         1 <0>         0.1422
     60 H20        15.4475    6.3954    0.2319 H         1 <0>         0.1546
     61 H21        18.0871    5.0487   -3.1356 H         1 <0>         0.0675
     62 H22        17.3812    6.5357   -3.8131 H         1 <0>         0.0731
     63 H23        19.8271    6.7449   -3.7406 H         1 <0>         0.0621
     64 H24        19.0972    7.8728   -2.5729 H         1 <0>         0.0924
     65 H25        21.8791    7.0470   -2.2392 H         1 <0>         0.0444
     66 H26        20.9018    7.9980   -1.0941 H         1 <0>         0.0894
     67 H27        22.8532    6.8915    0.0161 H         1 <0>         0.0999
     68 H28        21.2960    6.3271    0.6701 H         1 <0>         0.0621
     69 H29        21.4917    3.1828   -1.1792 H         1 <0>         0.0988
     70 H30        20.4830    4.1123   -0.0437 H         1 <0>         0.0617
     71 H31        19.5212    4.2370   -2.3062 H         1 <0>         0.0853
     72 H32        21.0683    4.8382   -2.9511 H         1 <0>         0.0448
@<TRIPOS>BOND
     1    1    2 1
     2    1   41 1
     3    1   42 1
     4    1   43 1
     5    2    3 1
     6    2    4 1
     7    2    5 1
     8    3   44 1
     9    3   45 1
    10    3   46 1
    11    4   47 1
    12    4   48 1
    13    4   49 1
    14    5    9 1
    15    5    6 2
    16    6    7 1
    17    6   50 1
    18    7    8 2
    19    7   10 1
    20    8    9 1
    21   10   11 am
    22   10   51 1
    23   11   12 2
    24   11   13 am
    25   13   14 1
    26   13   52 1
    27   14   19 ar
    28   14   15 ar
    29   15   16 ar
    30   15   53 1
    31   16   17 ar
    32   16   54 1
    33   17   18 ar
    34   17   20 1
    35   18   19 ar
    36   18   55 1
    37   19   56 1
    38   20   31 1
    39   20   21 2
    40   21   22 1
    41   21   57 1
    42   22   30 1
    43   22   23 1
    44   23   28 ar
    45   23   24 ar
    46   24   25 ar
    47   24   58 1
    48   25   26 ar
    49   25   59 1
    50   26   27 ar
    51   26   32 1
    52   27   28 ar
    53   27   60 1
    54   28   29 1
    55   29   30 1
    56   30   31 2
    57   32   33 1
    58   33   34 1
    59   33   61 1
    60   33   62 1
    61   34   35 1
    62   34   63 1
    63   34   64 1
    64   35   40 1
    65   35   36 1
    66   36   37 1
    67   36   65 1
    68   36   66 1
    69   37   38 1
    70   37   67 1
    71   37   68 1
    72   38   39 1
    73   39   40 1
    74   39   69 1
    75   39   70 1
    76   40   71 1
    77   40   72 1
@<TRIPOS>MOLECULE
CHEMBL576982__1
   73    78     0     0     0
SMALL
USER_CHARGES

@<TRIPOS>ATOM
      1 C1         -0.1947    4.9270   -0.9731 C.3       1 <0>        -0.1416
      2 C2         -0.5798    3.5481   -0.4334 C.3       1 <0>         0.0017
      3 C3         -0.1319    3.4277    1.0246 C.3       1 <0>        -0.1416
      4 C4         -2.0976    3.3735   -0.5167 C.3       1 <0>        -0.1488
      5 C5          0.0945    2.4804   -1.2559 C.2       1 <0>         0.0940
      6 C6          1.4211    2.3230   -1.4090 C.2       1 <0>        -0.2794
      7 C7          1.6362    1.2105   -2.2533 C.2       1 <0>         0.3469
      8 N1          0.4668    0.7276   -2.5871 N.2       1 <0>        -0.3538
      9 O1         -0.5250    1.5185   -1.9577 O.3       1 <0>        -0.0623
     10 N2          2.8753    0.7151   -2.6589 N.am      1 <0>        -0.6390
     11 C8          4.0093    1.3106   -2.2394 C.2       1 <0>         0.7165
     12 O2          3.9521    2.2796   -1.5073 O.2       1 <0>        -0.5387
     13 N3          5.2066    0.8319   -2.6313 N.am      1 <0>        -0.6750
     14 C9          6.3801    1.5063   -2.2761 C.ar      1 <0>         0.1677
     15 C10         6.4715    2.1358   -1.0408 C.ar      1 <0>        -0.1152
     16 C11         7.6268    2.8010   -0.6884 C.ar      1 <0>        -0.0655
     17 C12         8.7038    2.8413   -1.5726 C.ar      1 <0>        -0.0288
     18 C13         8.6098    2.2086   -2.8113 C.ar      1 <0>        -0.0836
     19 C14         7.4542    1.5406   -3.1570 C.ar      1 <0>        -0.1390
     20 C15         9.9477    3.5567   -1.1963 C.2       1 <0>         0.0894
     21 C16        11.0591    3.6757   -1.9606 C.2       1 <0>        -0.0228
     22 N4         11.9865    4.4194   -1.2363 N.pl3     1 <0>        -0.4368
     23 C17        13.2926    4.8890   -1.4377 C.ar      1 <0>         0.0808
     24 C18        14.0858    4.6922   -2.5802 C.ar      1 <0>        -0.0512
     25 C19        15.3572    5.2081   -2.6528 C.ar      1 <0>        -0.1756
     26 C20        15.8985    5.9385   -1.6020 C.ar      1 <0>         0.1308
     27 C21        15.1346    6.1469   -0.4619 C.ar      1 <0>        -0.0734
     28 C22        13.8624    5.6283   -0.3955 C.ar      1 <0>        -0.0972
     29 S1         12.5818    5.6567    0.8351 S.3       1 <0>         0.1884
     30 C23        11.3682    4.7107   -0.0555 C.2       1 <0>         0.1872
     31 N5         10.1673    4.2079   -0.0341 N.2       1 <0>        -0.4167
     32 O3         17.1585    6.4416   -1.6890 O.3       1 <0>        -0.3199
     33 C24        17.8786    6.1823   -2.8957 C.3       1 <0>         0.0234
     34 C25        19.2657    6.8222   -2.8094 C.3       1 <0>         0.0000
     35 N6         20.0289    6.1921   -1.7238 N.4       1 <0>        -0.3877
     36 C26        21.3041    6.9003   -1.5463 C.3       1 <0>        -0.0436
     37 C27        22.0973    6.2422   -0.4146 C.3       1 <0>         0.0351
     38 O4         22.3022    4.8608   -0.7238 O.3       1 <0>        -0.3555
     39 C28        21.0884    4.1327   -0.9296 C.3       1 <0>         0.0367
     40 C29        20.2933    4.7869   -2.0623 C.3       1 <0>        -0.0502
     41 H1          0.8866    5.0513   -0.9138 H         1 <0>         0.0654
     42 H2         -0.5138    5.0127   -2.0119 H         1 <0>         0.0618
     43 H3         -0.6824    5.6992   -0.3783 H         1 <0>         0.0742
     44 H4         -0.6196    4.2000    1.6194 H         1 <0>         0.0742
     45 H5         -0.4063    2.4454    1.4091 H         1 <0>         0.0622
     46 H6          0.9493    3.5521    1.0839 H         1 <0>         0.0655
     47 H7         -2.4167    3.4593   -1.5554 H         1 <0>         0.0643
     48 H8         -2.3720    2.3912   -0.1322 H         1 <0>         0.0645
     49 H9         -2.5853    4.1458    0.0781 H         1 <0>         0.0704
     50 H10         2.1884    2.9395   -0.9645 H         1 <0>         0.1833
     51 H11         2.9209   -0.0580   -3.2430 H         1 <0>         0.4203
     52 H12         5.2549    0.0198   -3.1597 H         1 <0>         0.4134
     53 H13         5.6369    2.1043   -0.3561 H         1 <0>         0.1469
     54 H14         7.6971    3.2907    0.2716 H         1 <0>         0.1378
     55 H15         9.4428    2.2388   -3.4981 H         1 <0>         0.1280
     56 H16         7.3824    1.0468   -4.1148 H         1 <0>         0.1327
     57 H17        11.2003    3.2682   -2.9507 H         1 <0>         0.1872
     58 H18        13.6914    4.1277   -3.4122 H         1 <0>         0.1414
     59 H19        15.9466    5.0426   -3.5425 H         1 <0>         0.1425
     60 H20        15.5358    6.7121    0.3664 H         1 <0>         0.1555
     61 H21        17.9829    5.1059   -3.0325 H         1 <0>         0.0899
     62 H22        17.3355    6.6050   -3.7410 H         1 <0>         0.1151
     63 H23        19.7913    6.6791   -3.7536 H         1 <0>         0.1528
     64 H24        19.1621    7.8886   -2.6093 H         1 <0>         0.1466
     65 H25        21.8796    6.8502   -2.4706 H         1 <0>         0.1406
     66 H26        21.1091    7.9429   -1.2951 H         1 <0>         0.1448
     67 H27        23.0620    6.7387   -0.3096 H         1 <0>         0.1437
     68 H28        21.5398    6.3276    0.5182 H         1 <0>         0.0825
     69 H29        21.3229    3.1024   -1.1974 H         1 <0>         0.1427
     70 H30        20.4964    4.1459   -0.0145 H         1 <0>         0.0823
     71 H31        19.3480    4.2606   -2.1941 H         1 <0>         0.1398
     72 H32        20.8692    4.7376   -2.9864 H         1 <0>         0.1418
     73 H33        19.4966    6.2377   -0.8679 H         1 <0>         0.4303
@<TRIPOS>BOND
     1    1    2 1
     2    1   41 1
     3    1   42 1
     4    1   43 1
     5    2    3 1
     6    2    4 1
     7    2    5 1
     8    3   44 1
     9    3   45 1
    10    3   46 1
    11    4   47 1
    12    4   48 1
    13    4   49 1
    14    5    9 1
    15    5    6 2
    16    6    7 1
    17    6   50 1
    18    7    8 2
    19    7   10 1
    20    8    9 1
    21   10   11 am
    22   10   51 1
    23   11   12 2
    24   11   13 am
    25   13   14 1
    26   13   52 1
    27   14   19 ar
    28   14   15 ar
    29   15   16 ar
    30   15   53 1
    31   16   17 ar
    32   16   54 1
    33   17   18 ar
    34   17   20 1
    35   18   19 ar
    36   18   55 1
    37   19   56 1
    38   20   31 1
    39   20   21 2
    40   21   22 1
    41   21   57 1
    42   22   30 1
    43   22   23 1
    44   23   28 ar
    45   23   24 ar
    46   24   25 ar
    47   24   58 1
    48   25   26 ar
    49   25   59 1
    50   26   27 ar
    51   26   32 1
    52   27   28 ar
    53   27   60 1
    54   28   29 1
    55   29   30 1
    56   30   31 2
    57   32   33 1
    58   33   34 1
    59   33   61 1
    60   33   62 1
    61   34   35 1
    62   34   63 1
    63   34   64 1
    64   35   40 1
    65   35   36 1
    66   35   73 1
    67   36   37 1
    68   36   65 1
    69   36   66 1
    70   37   38 1
    71   37   67 1
    72   37   68 1
    73   38   39 1
    74   39   40 1
    75   39   69 1
    76   39   70 1
    77   40   71 1
    78   40   72 1
@<TRIPOS>MOLECULE
CHEMBL401738
   38    41     0     0     0
SMALL
USER_CHARGES

@<TRIPOS>ATOM
      1 C1         -0.0184    1.5028    0.0103 C.3       1 <0>        -0.0749
      2 C2          0.0021   -0.0041    0.0020 C.2       1 <0>         0.0760
      3 C3          0.0079   -0.8104   -1.1355 C.2       1 <0>        -0.2267
      4 C4          0.0285   -2.1244   -0.7167 C.2       1 <0>         0.1417
      5 N1          0.0350   -2.1103    0.6478 N.pl3     1 <0>        -0.4643
      6 H1          0.0488   -2.8879    1.2276 H         1 <0>         0.4333
      7 N2          0.0230   -0.7725    1.0614 N.2       1 <0>        -0.2815
      8 C5          0.0404   -3.3194   -1.5807 C.2       1 <0>        -0.1180
      9 C6         -1.0388   -4.2017   -1.5817 C.2       1 <0>         0.0768
     10 C7         -0.9764   -5.3775   -2.4623 C.ar      1 <0>        -0.1072
     11 C8         -2.0329   -6.2932   -2.5012 C.ar      1 <0>        -0.0408
     12 C9         -1.9567   -7.3883   -3.3325 C.ar      1 <0>        -0.0661
     13 C10        -0.8368   -7.5864   -4.1302 C.ar      1 <0>        -0.0499
     14 C11         0.2115   -6.6931   -4.1025 C.ar      1 <0>        -0.1490
     15 C12         0.1560   -5.5786   -3.2700 C.ar      1 <0>         0.1968
     16 N3          1.2051   -4.6812   -3.2413 N.am      1 <0>        -0.6277
     17 H2          1.9770   -4.8390   -3.8072 H         1 <0>         0.4221
     18 C13         1.1829   -3.5927   -2.4540 C.2       1 <0>         0.5514
     19 O1          2.1287   -2.8247   -2.4638 O.2       1 <0>        -0.5066
     20 Cl1        -3.2661   -8.5270   -3.3835 Cl        1 <0>        -0.0553
     21 C14        -2.2147   -3.9619   -0.7199 C.ar      1 <0>        -0.0693
     22 C15        -2.0837   -3.9930    0.6702 C.ar      1 <0>        -0.0962
     23 C16        -3.1856   -3.7683    1.4687 C.ar      1 <0>        -0.1113
     24 C17        -4.4190   -3.5128    0.8955 C.ar      1 <0>        -0.1028
     25 C18        -4.5560   -3.4805   -0.4811 C.ar      1 <0>        -0.1129
     26 C19        -3.4612   -3.6973   -1.2917 C.ar      1 <0>        -0.0921
     27 H3          1.0042    1.8801    0.0026 H         1 <0>         0.0784
     28 H4         -0.5455    1.8639   -0.8728 H         1 <0>         0.0782
     29 H5         -0.5286    1.8543    0.9071 H         1 <0>         0.0735
     30 H6         -0.0023   -0.4678   -2.1597 H         1 <0>         0.1477
     31 H7         -2.9046   -6.1422   -1.8817 H         1 <0>         0.1481
     32 H8         -0.7873   -8.4492   -4.7779 H         1 <0>         0.1472
     33 H9          1.0773   -6.8577   -4.7268 H         1 <0>         0.1483
     34 H10        -1.1218   -4.1930    1.1189 H         1 <0>         0.1153
     35 H11        -3.0858   -3.7921    2.5438 H         1 <0>         0.1295
     36 H12        -5.2787   -3.3383    1.5255 H         1 <0>         0.1283
     37 H13        -5.5216   -3.2809   -0.9219 H         1 <0>         0.1310
     38 H14        -3.5686   -3.6674   -2.3659 H         1 <0>         0.1290
@<TRIPOS>BOND
     1    1    2 1
     2    1   27 1
     3    1   28 1
     4    1   29 1
     5    2    7 2
     6    2    3 1
     7    3    4 2
     8    3   30 1
     9    4    5 1
    10    4    8 1
    11    5    6 1
    12    5    7 1
    13    8   18 1
    14    8    9 2
    15    9   10 1
    16    9   21 1
    17   10   15 ar
    18   10   11 ar
    19   11   12 ar
    20   11   31 1
    21   12   13 ar
    22   12   20 1
    23   13   14 ar
    24   13   32 1
    25   14   15 ar
    26   14   33 1
    27   15   16 1
    28   16   17 1
    29   16   18 am
    30   18   19 2
    31   21   26 ar
    32   21   22 ar
    33   22   23 ar
    34   22   34 1
    35   23   24 ar
    36   23   35 1
    37   24   25 ar
    38   24   36 1
    39   25   26 ar
    40   25   37 1
    41   26   38 1
@<TRIPOS>MOLECULE
CHEMBL401738__1
   38    41     0     0     0
SMALL
USER_CHARGES

@<TRIPOS>ATOM
      1 C1         -0.0127    1.0858    0.0080 C.3       1 <0>        -0.0933
      2 C2         -0.7416    1.5850   -1.2129 C.2       1 <0>         0.0772
      3 C3         -2.0662    1.8321   -1.3005 C.2       1 <0>        -0.2375
      4 C4         -2.3360    2.2828   -2.6090 C.2       1 <0>         0.1189
      5 N1         -1.1982    2.3001   -3.2736 N.2       1 <0>        -0.2613
      6 H1          0.7571    1.7878   -2.6325 H         1 <0>         0.4371
      7 N2         -0.1834    1.8694   -2.4096 N.pl3     1 <0>        -0.4717
      8 C5         -3.6624    2.6678   -3.1419 C.2       1 <0>        -0.0934
      9 C6         -3.7964    3.0928   -4.4602 C.2       1 <0>         0.0702
     10 C7         -5.1361    3.4634   -4.9403 C.ar      1 <0>        -0.1022
     11 C8         -5.3251    3.8964   -6.2564 C.ar      1 <0>        -0.0419
     12 C9         -6.5873    4.2387   -6.6878 C.ar      1 <0>        -0.0657
     13 C10        -7.6706    4.1555   -5.8223 C.ar      1 <0>        -0.0542
     14 C11        -7.4998    3.7307   -4.5231 C.ar      1 <0>        -0.1486
     15 C12        -6.2326    3.3795   -4.0654 C.ar      1 <0>         0.1919
     16 N3         -6.0582    2.9528   -2.7640 N.am      1 <0>        -0.6278
     17 H2         -6.8283    2.9020   -2.1763 H         1 <0>         0.4211
     18 C13        -4.8504    2.6008   -2.2920 C.2       1 <0>         0.5545
     19 O1         -4.7427    2.2252   -1.1378 O.2       1 <0>        -0.5127
     20 Cl1        -6.8256    4.7773   -8.3209 Cl        1 <0>        -0.0580
     21 C14        -2.6224    3.1703   -5.3546 C.ar      1 <0>        -0.0582
     22 C15        -2.1889    4.4068   -5.8374 C.ar      1 <0>        -0.0928
     23 C16        -1.0926    4.4719   -6.6719 C.ar      1 <0>        -0.1237
     24 C17        -0.4229    3.3155   -7.0312 C.ar      1 <0>        -0.1043
     25 C18        -0.8471    2.0869   -6.5564 C.ar      1 <0>        -0.1206
     26 C19        -1.9382    2.0080   -5.7162 C.ar      1 <0>        -0.0487
     27 H3          0.0021   -0.0041    0.0020 H         1 <0>         0.0808
     28 H4          1.0099    1.4631    0.0003 H         1 <0>         0.0704
     29 H5         -0.5229    1.4373    0.9048 H         1 <0>         0.0872
     30 H6         -2.7904    1.7064   -0.5091 H         1 <0>         0.1639
     31 H7         -4.4848    3.9625   -6.9316 H         1 <0>         0.1481
     32 H8         -8.6560    4.4268   -6.1711 H         1 <0>         0.1456
     33 H9         -8.3494    3.6702   -3.8590 H         1 <0>         0.1469
     34 H10        -2.7111    5.3101   -5.5583 H         1 <0>         0.1212
     35 H11        -0.7562    5.4276   -7.0460 H         1 <0>         0.1236
     36 H12         0.4345    3.3721   -7.6854 H         1 <0>         0.1209
     37 H13        -0.3201    1.1882   -6.8410 H         1 <0>         0.1212
     38 H14        -2.2654    1.0489   -5.3425 H         1 <0>         0.1158
@<TRIPOS>BOND
     1    1   27 1
     2    1   28 1
     3    1   29 1
     4    1    2 1
     5    2    3 2
     6    2    7 1
     7    3    4 1
     8    3   30 1
     9    4    5 2
    10    4    8 1
    11    5    7 1
    12    6    7 1
    13    8   18 1
    14    8    9 2
    15    9   10 1
    16    9   21 1
    17   10   15 ar
    18   10   11 ar
    19   11   12 ar
    20   11   31 1
    21   12   13 ar
    22   12   20 1
    23   13   14 ar
    24   13   32 1
    25   14   15 ar
    26   14   33 1
    27   15   16 1
    28   16   17 1
    29   16   18 am
    30   18   19 2
    31   21   26 ar
    32   21   22 ar
    33   22   23 ar
    34   22   34 1
    35   23   24 ar
    36   23   35 1
    37   24   25 ar
    38   24   36 1
    39   25   26 ar
    40   25   37 1
    41   26   38 1
@<TRIPOS>MOLECULE
CHEMBL270084
   49    52     0     0     0
SMALL
USER_CHARGES

@<TRIPOS>ATOM
      1 C1          1.6154    1.0956   -0.1003 C.3       1 <0>        -0.1151
      2 C2          1.6408   -0.4026    0.0605 C.ar      1 <0>        -0.0749
      3 C3          2.2062   -1.1929   -0.9232 C.ar      1 <0>        -0.1051
      4 C4          2.2324   -2.5679   -0.7800 C.ar      1 <0>        -0.1294
      5 C5          1.6920   -3.1568    0.3487 C.ar      1 <0>         0.0653
      6 C6          1.1229   -2.3640    1.3391 C.ar      1 <0>         0.1321
      7 C7          1.1043   -0.9837    1.1932 C.ar      1 <0>        -0.0943
      8 N1          0.5745   -2.9563    2.4838 N.am      1 <0>        -0.6775
      9 C8          0.6622   -2.3305    3.6742 C.2       1 <0>         0.7071
     10 O1          1.1432   -1.2157    3.7411 O.2       1 <0>        -0.5491
     11 N2          0.2167   -2.9403    4.7905 N.am      1 <0>        -0.6776
     12 C9          0.2110   -2.2525    6.0081 C.ar      1 <0>         0.1719
     13 C10         0.0941   -0.8676    6.0220 C.ar      1 <0>        -0.1209
     14 C11         0.0887   -0.1871    7.2207 C.ar      1 <0>        -0.0755
     15 C12         0.2003   -0.8898    8.4206 C.ar      1 <0>        -0.0717
     16 C13         0.3171   -2.2798    8.4038 C.ar      1 <0>        -0.0933
     17 C14         0.3167   -2.9556    7.2024 C.ar      1 <0>        -0.1461
     18 C15         0.1953   -0.1612    9.7104 C.ar      1 <0>        -0.0039
     19 C16        -0.8632    0.6784   10.0355 C.ar      1 <0>        -0.0978
     20 C17        -0.8678    1.3595   11.2400 C.ar      1 <0>        -0.1526
     21 C18         0.1769    1.2155   12.1362 C.ar      1 <0>         0.1248
     22 C19         1.2495    0.3781   11.8316 C.ar      1 <0>         0.0789
     23 C20         1.2591   -0.3189   10.6168 C.ar      1 <0>        -0.1588
     24 C21         2.4983   -1.1069   10.5974 C.2       1 <0>         0.3796
     25 N3          3.1252   -0.8701   11.7171 N.2       1 <0>        -0.3535
     26 O2          2.3800    0.0483   12.4913 O.3       1 <0>        -0.0799
     27 N4          2.9234   -1.9475    9.5777 N.pl3     1 <0>        -0.8175
     28 O3          0.1576    1.8920   13.3153 O.3       1 <0>        -0.3078
     29 C22        -0.9712    2.7326   13.5627 C.3       1 <0>         0.0246
     30 F1          1.7166   -4.5004    0.4885 F         1 <0>        -0.1383
     31 H1          2.5227    1.5224    0.3273 H         1 <0>         0.0757
     32 H2          1.5601    1.3464   -1.1596 H         1 <0>         0.0707
     33 H3          0.7450    1.5016    0.4152 H         1 <0>         0.0696
     34 H4          2.6282   -0.7351   -1.8057 H         1 <0>         0.1356
     35 H5          2.6747   -3.1824   -1.5501 H         1 <0>         0.1414
     36 H6          0.6667   -0.3649    1.9625 H         1 <0>         0.1519
     37 H7          0.1317   -3.8169    2.4197 H         1 <0>         0.4123
     38 H8         -0.1000   -3.8562    4.7493 H         1 <0>         0.4117
     39 H9          0.0077   -0.3242    5.0927 H         1 <0>         0.1488
     40 H10        -0.0015    0.8891    7.2309 H         1 <0>         0.1324
     41 H11         0.4040   -2.8262    9.3313 H         1 <0>         0.1321
     42 H12         0.4026   -4.0321    7.1889 H         1 <0>         0.1325
     43 H13        -1.6850    0.8001    9.3454 H         1 <0>         0.1409
     44 H14        -1.6947    2.0102   11.4831 H         1 <0>         0.1479
     45 H15         2.4236   -1.9945    8.7477 H         1 <0>         0.4165
     46 H16         3.7203   -2.4880    9.6952 H         1 <0>         0.4129
     47 H17        -0.8609    3.2122   14.5352 H         1 <0>         0.1053
     48 H18        -1.0332    3.4953   12.7864 H         1 <0>         0.0592
     49 H19        -1.8804    2.1315   13.5549 H         1 <0>         0.0591
@<TRIPOS>BOND
     1    1    2 1
     2    1   31 1
     3    1   32 1
     4    1   33 1
     5    2    7 ar
     6    2    3 ar
     7    3    4 ar
     8    3   34 1
     9    4    5 ar
    10    4   35 1
    11    5    6 ar
    12    5   30 1
    13    6    7 ar
    14    6    8 1
    15    7   36 1
    16    8    9 am
    17    8   37 1
    18    9   10 2
    19    9   11 am
    20   11   12 1
    21   11   38 1
    22   12   17 ar
    23   12   13 ar
    24   13   14 ar
    25   13   39 1
    26   14   15 ar
    27   14   40 1
    28   15   16 ar
    29   15   18 1
    30   16   17 ar
    31   16   41 1
    32   17   42 1
    33   18   23 ar
    34   18   19 ar
    35   19   20 ar
    36   19   43 1
    37   20   21 ar
    38   20   44 1
    39   21   22 ar
    40   21   28 1
    41   22   26 1
    42   22   23 ar
    43   23   24 1
    44   24   25 2
    45   24   27 1
    46   25   26 1
    47   27   45 1
    48   27   46 1
    49   28   29 1
    50   29   47 1
    51   29   48 1
    52   29   49 1
@<TRIPOS>MOLECULE
CHEMBL1087280
   54    57     0     0     0
SMALL
USER_CHARGES

@<TRIPOS>ATOM
      1 C1          6.4271   -1.8359   -8.1495 C.3       1 <0>         0.0976
      2 N1          5.8991   -3.0267   -7.4791 N.pl3     1 <0>        -0.3703
      3 C2          4.6537   -3.1673   -6.9830 C.2       1 <0>         0.1018
      4 C3          4.5633   -4.4176   -6.4427 C.2       1 <0>        -0.1963
      5 C4          5.8091   -5.0498   -6.6248 C.2       1 <0>         0.0719
      6 N2          6.5993   -4.2171   -7.2488 N.2       1 <0>        -0.2908
      7 C5          3.3705   -5.0037   -5.7831 C.ar      1 <0>         0.1422
      8 C6          3.4242   -6.2957   -5.2702 C.ar      1 <0>         0.0780
      9 N3          2.3627   -6.8201   -4.6815 N.ar      1 <0>        -0.4676
     10 C7          1.2447   -6.1163   -4.5785 C.ar      1 <0>         0.3581
     11 C8          1.1869   -4.8162   -5.0933 C.ar      1 <0>         0.2200
     12 N4          2.2507   -4.2907   -5.6774 N.ar      1 <0>        -0.4558
     13 O1          0.0424   -4.0941   -4.9891 O.3       1 <0>        -0.2388
     14 C9          0.0620   -2.8021   -5.4124 C.ar      1 <0>         0.0502
     15 C10         0.0144   -2.5056   -6.7720 C.ar      1 <0>        -0.1310
     16 C11         0.0362   -1.1733   -7.1577 C.ar      1 <0>         0.0780
     17 C12         0.1046   -0.1852   -6.1771 C.ar      1 <0>         0.3090
     18 N5          0.1482   -0.5077   -4.8969 N.ar      1 <0>        -0.4878
     19 C13         0.1238   -1.7654   -4.4959 C.ar      1 <0>         0.1103
     20 O2          0.1271    1.1232   -6.5417 O.3       1 <0>        -0.2867
     21 C14         0.1977    2.0885   -5.4904 C.3       1 <0>         0.1170
     22 C15         0.2131    3.4747   -6.0814 C.ar      1 <0>        -0.1369
     23 C16         1.4165    4.0730   -6.4063 C.ar      1 <0>        -0.0530
     24 C17         1.4334    5.3438   -6.9478 C.ar      1 <0>        -0.1553
     25 C18         0.2415    6.0194   -7.1660 C.ar      1 <0>         0.1385
     26 C19        -0.9647    5.4167   -6.8396 C.ar      1 <0>        -0.2118
     27 C20        -0.9764    4.1437   -6.3032 C.ar      1 <0>        -0.0519
     28 O3          0.2555    7.2698   -7.6982 O.3       1 <0>        -0.3164
     29 C21        -1.0093    7.9053   -7.8951 C.3       1 <0>         0.0256
     30 O4         -0.0080   -0.8359   -8.4744 O.3       1 <0>        -0.2954
     31 C22        -0.0767   -1.9079   -9.4168 C.3       1 <0>         0.0231
     32 N6          0.1276   -6.6702   -3.9587 N.pl3     1 <0>        -0.8354
     33 H1          6.2345   -1.9061   -9.2200 H         1 <0>         0.0788
     34 H2          5.9382   -0.9473   -7.7499 H         1 <0>         0.0901
     35 H3          7.5012   -1.7681   -7.9771 H         1 <0>         0.0935
     36 H4          3.8697   -2.4250   -7.0078 H         1 <0>         0.1779
     37 H5          6.0650   -6.0500   -6.3077 H         1 <0>         0.1902
     38 H6          4.3342   -6.8714   -5.3532 H         1 <0>         0.1738
     39 H7         -0.0379   -3.2938   -7.5085 H         1 <0>         0.1495
     40 H8          0.1568   -1.9889   -3.4398 H         1 <0>         0.1683
     41 H9         -0.6699    1.9807   -4.8393 H         1 <0>         0.0761
     42 H10         1.1079    1.9299   -4.9120 H         1 <0>         0.0764
     43 H11         2.3441    3.5467   -6.2362 H         1 <0>         0.1314
     44 H12         2.3736    5.8111   -7.2007 H         1 <0>         0.1341
     45 H13        -1.8938    5.9406   -7.0085 H         1 <0>         0.1313
     46 H14        -1.9153    3.6722   -6.0530 H         1 <0>         0.1274
     47 H15        -1.6157    7.3051   -8.5733 H         1 <0>         0.0571
     48 H16        -1.5212    8.0002   -6.9375 H         1 <0>         0.0571
     49 H17        -0.8555    8.8952   -8.3246 H         1 <0>         0.1021
     50 H18        -0.1065   -1.5016  -10.4278 H         1 <0>         0.1063
     51 H19         0.8009   -2.5450   -9.3070 H         1 <0>         0.0568
     52 H20        -0.9768   -2.4949   -9.2345 H         1 <0>         0.0568
     53 H21         0.1677   -7.5715   -3.6022 H         1 <0>         0.4089
     54 H22        -0.6907   -6.1549   -3.8834 H         1 <0>         0.4158
@<TRIPOS>BOND
     1    1    2 1
     2    1   33 1
     3    1   34 1
     4    1   35 1
     5    2    6 1
     6    2    3 1
     7    3    4 2
     8    3   36 1
     9    4    5 1
    10    4    7 1
    11    5    6 2
    12    5   37 1
    13    7   12 ar
    14    7    8 ar
    15    8    9 ar
    16    8   38 1
    17    9   10 ar
    18   10   11 ar
    19   10   32 1
    20   11   12 ar
    21   11   13 1
    22   13   14 1
    23   14   19 ar
    24   14   15 ar
    25   15   16 ar
    26   15   39 1
    27   16   17 ar
    28   16   30 1
    29   17   18 ar
    30   17   20 1
    31   18   19 ar
    32   19   40 1
    33   20   21 1
    34   21   22 1
    35   21   41 1
    36   21   42 1
    37   22   27 ar
    38   22   23 ar
    39   23   24 ar
    40   23   43 1
    41   24   25 ar
    42   24   44 1
    43   25   26 ar
    44   25   28 1
    45   26   27 ar
    46   26   45 1
    47   27   46 1
    48   28   29 1
    49   29   47 1
    50   29   48 1
    51   29   49 1
    52   30   31 1
    53   31   50 1
    54   31   51 1
    55   31   52 1
    56   32   53 1
    57   32   54 1
@<TRIPOS>MOLECULE
CHEMBL1087279
   57    60     0     0     0
SMALL
USER_CHARGES

@<TRIPOS>ATOM
      1 C1         -0.0178    1.4608    0.0101 C.3       1 <0>         0.0981
      2 N1          0.0021   -0.0041    0.0020 N.pl3     1 <0>        -0.3720
      3 C2          0.0078   -0.7882   -1.0944 C.2       1 <0>         0.0989
      4 C3          0.0273   -2.0864   -0.6734 C.2       1 <0>        -0.1945
      5 C4          0.0335   -2.0757    0.7355 C.2       1 <0>         0.0714
      6 N2          0.0245   -0.8307    1.1318 N.2       1 <0>        -0.2921
      7 C5          0.0390   -3.2897   -1.5413 C.ar      1 <0>         0.1418
      8 C6          0.0531   -4.5583   -0.9708 C.ar      1 <0>         0.0701
      9 N3          0.0635   -5.6321   -1.7422 N.ar      1 <0>        -0.4699
     10 C7          0.0601   -5.5027   -3.0610 C.ar      1 <0>         0.3511
     11 C8          0.0454   -4.2281   -3.6384 C.ar      1 <0>         0.2352
     12 N4          0.0304   -3.1549   -2.8662 N.ar      1 <0>        -0.4689
     13 O1          0.0419   -4.0937   -4.9892 O.3       1 <0>        -0.3014
     14 C9          0.0268   -2.7626   -5.5087 C.3       1 <0>         0.1266
     15 C10         0.0250   -2.8112   -7.0149 C.ar      1 <0>        -0.1501
     16 C11         1.2223   -2.8267   -7.7173 C.ar      1 <0>        -0.1118
     17 C12         1.1748   -2.8722   -9.1033 C.ar      1 <0>         0.0628
     18 C13        -0.0666   -2.9005   -9.7367 C.ar      1 <0>         0.3164
     19 N5         -1.1825   -2.8844   -9.0293 N.ar      1 <0>        -0.5054
     20 C14        -1.1669   -2.8465   -7.7097 C.ar      1 <0>         0.1284
     21 O2         -0.1296   -2.9447  -11.0922 O.3       1 <0>        -0.2878
     22 C15        -1.4316   -2.9719  -11.6806 C.3       1 <0>         0.1175
     23 C16        -1.3037   -3.0195  -13.1814 C.ar      1 <0>        -0.1372
     24 C17        -1.2470   -1.8438  -13.9068 C.ar      1 <0>        -0.0530
     25 C18        -1.1303   -1.8848  -15.2827 C.ar      1 <0>        -0.1551
     26 C19        -1.0694   -3.1069  -15.9365 C.ar      1 <0>         0.1384
     27 C20        -1.1260   -4.2851  -15.2062 C.ar      1 <0>        -0.2119
     28 C21        -1.2375   -4.2388  -13.8300 C.ar      1 <0>        -0.0521
     29 O3         -0.9550   -3.1499  -17.2900 O.3       1 <0>        -0.3163
     30 C22        -0.8978   -4.4429  -17.8955 C.3       1 <0>         0.0256
     31 O4          2.3223   -2.8885   -9.8330 O.3       1 <0>        -0.2977
     32 C23         3.5530   -2.8567   -9.1074 C.3       1 <0>         0.0231
     33 N6          0.0715   -6.6347   -3.8720 N.pl3     1 <0>        -0.8363
     34 H1          1.0048    1.8381    0.0023 H         1 <0>         0.0783
     35 H2         -0.5450    1.8219   -0.8730 H         1 <0>         0.0902
     36 H3         -0.5280    1.8123    0.9069 H         1 <0>         0.0926
     37 H4         -0.0018   -0.4504   -2.1202 H         1 <0>         0.1811
     38 H5          0.0482   -2.9451    1.3762 H         1 <0>         0.1898
     39 H6          0.0558   -4.6663    0.1038 H         1 <0>         0.1715
     40 H7         -0.8683   -2.2469   -5.1608 H         1 <0>         0.0808
     41 H8          0.9116   -2.2278   -5.1635 H         1 <0>         0.0767
     42 H9          2.1685   -2.8036   -7.1972 H         1 <0>         0.1481
     43 H10        -2.1002   -2.8391   -7.1663 H         1 <0>         0.1646
     44 H11        -1.9687   -3.8546  -11.3335 H         1 <0>         0.0756
     45 H12        -1.9800   -2.0756  -11.3909 H         1 <0>         0.0764
     46 H13        -1.2945   -0.8927  -13.3974 H         1 <0>         0.1318
     47 H14        -1.0868   -0.9662  -15.8490 H         1 <0>         0.1343
     48 H15        -1.0788   -5.2378  -15.7128 H         1 <0>         0.1313
     49 H16        -1.2772   -5.1557  -13.2607 H         1 <0>         0.1272
     50 H17        -0.0345   -4.9863  -17.5112 H         1 <0>         0.0570
     51 H18        -1.8082   -4.9946  -17.6609 H         1 <0>         0.0570
     52 H19        -0.8071   -4.3343  -18.9763 H         1 <0>         0.1021
     53 H20         4.3882   -2.8741   -9.8075 H         1 <0>         0.1056
     54 H21         3.5989   -1.9465   -8.5095 H         1 <0>         0.0566
     55 H22         3.6106   -3.7255   -8.4515 H         1 <0>         0.0569
     56 H23         0.0820   -7.5181   -3.4716 H         1 <0>         0.4073
     57 H24         0.0690   -6.5397   -4.8374 H         1 <0>         0.4150
@<TRIPOS>BOND
     1    1    2 1
     2    1   34 1
     3    1   35 1
     4    1   36 1
     5    2    6 1
     6    2    3 1
     7    3    4 2
     8    3   37 1
     9    4    5 1
    10    4    7 1
    11    5    6 2
    12    5   38 1
    13    7   12 ar
    14    7    8 ar
    15    8    9 ar
    16    8   39 1
    17    9   10 ar
    18   10   11 ar
    19   10   33 1
    20   11   12 ar
    21   11   13 1
    22   13   14 1
    23   14   15 1
    24   14   40 1
    25   14   41 1
    26   15   20 ar
    27   15   16 ar
    28   16   17 ar
    29   16   42 1
    30   17   18 ar
    31   17   31 1
    32   18   19 ar
    33   18   21 1
    34   19   20 ar
    35   20   43 1
    36   21   22 1
    37   22   23 1
    38   22   44 1
    39   22   45 1
    40   23   28 ar
    41   23   24 ar
    42   24   25 ar
    43   24   46 1
    44   25   26 ar
    45   25   47 1
    46   26   27 ar
    47   26   29 1
    48   27   28 ar
    49   27   48 1
    50   28   49 1
    51   29   30 1
    52   30   50 1
    53   30   51 1
    54   30   52 1
    55   31   32 1
    56   32   53 1
    57   32   54 1
    58   32   55 1
    59   33   56 1
    60   33   57 1
@<TRIPOS>MOLECULE
CHEMBL1172347
   47    50     0     0     0
SMALL
USER_CHARGES

@<TRIPOS>ATOM
      1 C1         -0.0267    1.4080    0.0558 C.ar      1 <0>        -0.1123
      2 C2          1.1740    2.0971    0.0399 C.ar      1 <0>        -0.0833
      3 C3          2.3614    1.3605    0.0200 C.ar      1 <0>        -0.0156
      4 C4          2.2914   -0.0311    0.0169 C.ar      1 <0>         0.0673
      5 N1          1.1243   -0.6440    0.0320 N.ar      1 <0>        -0.1088
      6 O1          1.0900   -2.0596    0.0283 O.3       1 <0>        -0.5548
      7 C5         -0.0135    0.0256    0.0515 C.ar      1 <0>         0.0553
      8 C6          3.6754    2.0491    0.0020 C.ar      1 <0>        -0.0947
      9 C7          3.7320    3.4433    0.0107 C.ar      1 <0>        -0.0740
     10 C8          4.9502    4.0892   -0.0056 C.ar      1 <0>        -0.1261
     11 C9          6.1290    3.3560   -0.0307 C.ar      1 <0>         0.1992
     12 C10         6.0816    1.9544   -0.0396 C.ar      1 <0>        -0.0812
     13 C11         4.8501    1.3044   -0.0178 C.ar      1 <0>        -0.0663
     14 C12         7.3333    1.1705   -0.0667 C.2       1 <0>        -0.0988
     15 C13         7.9987    1.1089   -1.1954 C.2       1 <0>        -0.1172
     16 C14         9.2780    0.3438   -1.3708 C.3       1 <0>        -0.0894
     17 C15         9.8942    0.0279   -0.0063 C.3       1 <0>        -0.1223
     18 C16         8.8093   -0.5865    0.8869 C.3       1 <0>        -0.1175
     19 C17         7.7722    0.4963    1.2003 C.3       1 <0>        -0.0763
     20 N2          7.3592    4.0129   -0.0475 N.am      1 <0>        -0.6623
     21 C18         7.4909    5.1802   -0.7081 C.2       1 <0>         0.6288
     22 O2          6.5190    5.7023   -1.2197 O.2       1 <0>        -0.5285
     23 C19         8.8139    5.8246   -0.8106 C.2       1 <0>         0.0472
     24 N3          9.9794    5.3367   -0.2855 N.2       1 <0>        -0.5283
     25 C20        10.9602    6.2105   -0.5924 C.2       1 <0>        -0.0054
     26 C21        10.3738    7.2346   -1.3105 C.2       1 <0>        -0.0416
     27 N4          9.0660    6.9564   -1.4250 N.2       1 <0>        -0.4509
     28 C22        11.0424    8.3842   -1.8417 C.1       1 <0>         0.3315
     29 N5         11.5728    9.2961   -2.2631 N.1       1 <0>        -0.4905
     30 H1         -0.9637    1.9447    0.0759 H         1 <0>         0.1645
     31 H2          1.1926    3.1770    0.0425 H         1 <0>         0.1564
     32 H3          3.2012   -0.6128    0.0016 H         1 <0>         0.1815
     33 H4         -0.9484   -0.5150    0.0642 H         1 <0>         0.1796
     34 H5          2.8183    4.0187    0.0298 H         1 <0>         0.1289
     35 H6          4.9875    5.1685    0.0009 H         1 <0>         0.1503
     36 H7          4.8072    0.2252   -0.0200 H         1 <0>         0.1289
     37 H8          7.6027    1.6395   -2.0486 H         1 <0>         0.1034
     38 H9          9.0727   -0.5873   -1.8988 H         1 <0>         0.0725
     39 H10         9.9790    0.9408   -1.9542 H         1 <0>         0.0759
     40 H11        10.7124   -0.6816   -0.1293 H         1 <0>         0.0628
     41 H12        10.2667    0.9457    0.4487 H         1 <0>         0.0706
     42 H13         8.3318   -1.4159    0.3653 H         1 <0>         0.0631
     43 H14         9.2571   -0.9427    1.8147 H         1 <0>         0.0644
     44 H15         8.2089    1.2363    1.8709 H         1 <0>         0.0747
     45 H16         6.9092    0.0384    1.6836 H         1 <0>         0.0699
     46 H17         8.1200    3.6295    0.4163 H         1 <0>         0.4210
     47 H18        12.0038    6.1257   -0.3275 H         1 <0>         0.1480
@<TRIPOS>BOND
     1    1    7 ar
     2    1    2 ar
     3    1   30 1
     4    2    3 ar
     5    2   31 1
     6    3    4 ar
     7    3    8 1
     8    4    5 ar
     9    4   32 1
    10    5    6 1
    11    5    7 ar
    12    7   33 1
    13    8   13 ar
    14    8    9 ar
    15    9   10 ar
    16    9   34 1
    17   10   11 ar
    18   10   35 1
    19   11   12 ar
    20   11   20 1
    21   12   13 ar
    22   12   14 1
    23   13   36 1
    24   14   19 1
    25   14   15 2
    26   15   16 1
    27   15   37 1
    28   16   17 1
    29   16   38 1
    30   16   39 1
    31   17   18 1
    32   17   40 1
    33   17   41 1
    34   18   19 1
    35   18   42 1
    36   18   43 1
    37   19   44 1
    38   19   45 1
    39   20   21 am
    40   20   46 1
    41   21   22 2
    42   21   23 1
    43   23   27 2
    44   23   24 1
    45   24   25 1
    46   25   26 2
    47   25   47 1
    48   26   27 1
    49   26   28 1
    50   28   29 3
@<TRIPOS>MOLECULE
CHEMBL1172347__1
   48    51     0     0     0
SMALL
USER_CHARGES

@<TRIPOS>ATOM
      1 C1         -0.0267    1.4080    0.0558 C.ar      1 <0>        -0.1121
      2 C2          1.1740    2.0971    0.0399 C.ar      1 <0>        -0.0774
      3 C3          2.3614    1.3605    0.0200 C.ar      1 <0>        -0.0342
      4 C4          2.2914   -0.0311    0.0169 C.ar      1 <0>         0.0742
      5 N1          1.1243   -0.6440    0.0320 N.ar      1 <0>        -0.1110
      6 O1          1.0900   -2.0596    0.0283 O.3       1 <0>        -0.5469
      7 C5         -0.0135    0.0256    0.0515 C.ar      1 <0>         0.0664
      8 C6          3.6754    2.0491    0.0020 C.ar      1 <0>        -0.0646
      9 C7          3.7320    3.4433    0.0107 C.ar      1 <0>        -0.0795
     10 C8          4.9502    4.0891   -0.0056 C.ar      1 <0>        -0.1150
     11 C9          6.1290    3.3560   -0.0307 C.ar      1 <0>         0.1658
     12 C10         6.0816    1.9544   -0.0396 C.ar      1 <0>        -0.0603
     13 C11         4.8501    1.3044   -0.0178 C.ar      1 <0>        -0.0712
     14 C12         7.3333    1.1705   -0.0667 C.2       1 <0>        -0.1033
     15 C13         7.9987    1.1089   -1.1954 C.2       1 <0>        -0.1170
     16 C14         9.2780    0.3438   -1.3708 C.3       1 <0>        -0.0921
     17 C15         9.8942    0.0279   -0.0063 C.3       1 <0>        -0.1225
     18 C16         8.8093   -0.5865    0.8869 C.3       1 <0>        -0.1203
     19 C17         7.7722    0.4963    1.2003 C.3       1 <0>        -0.0779
     20 N2          7.3592    4.0129   -0.0475 N.am      1 <0>        -0.6401
     21 C18         7.4909    5.1802   -0.7081 C.2       1 <0>         0.6128
     22 O2          6.5190    5.7023   -1.2197 O.2       1 <0>        -0.5116
     23 C19         8.8139    5.8246   -0.8106 C.2       1 <0>         0.1580
     24 N3          9.0758    7.0073   -1.4466 N.pl3     1 <0>        -0.5107
     25 H1          8.4300    7.5666   -1.9060 H         1 <0>         0.4430
     26 C20        10.3957    7.2541   -1.3177 C.2       1 <0>         0.0659
     27 C21        10.9306    6.2053   -0.5952 C.2       1 <0>         0.0614
     28 N4          9.9307    5.3597   -0.3017 N.2       1 <0>        -0.4008
     29 C22        12.3044    6.0507   -0.2219 C.1       1 <0>         0.2931
     30 N5         13.3942    5.9280    0.0743 N.1       1 <0>        -0.3905
     31 H2         -0.9637    1.9447    0.0759 H         1 <0>         0.1678
     32 H3          1.1926    3.1770    0.0425 H         1 <0>         0.1566
     33 H4          3.2012   -0.6128    0.0016 H         1 <0>         0.1819
     34 H5         -0.9484   -0.5150    0.0642 H         1 <0>         0.1835
     35 H6          2.8183    4.0187    0.0298 H         1 <0>         0.1348
     36 H7          4.9875    5.1685    0.0009 H         1 <0>         0.1487
     37 H8          4.8072    0.2252   -0.0200 H         1 <0>         0.1355
     38 H9          7.6027    1.6395   -2.0486 H         1 <0>         0.1035
     39 H10         9.0727   -0.5873   -1.8988 H         1 <0>         0.0779
     40 H11         9.9790    0.9408   -1.9542 H         1 <0>         0.0747
     41 H12        10.7124   -0.6816   -0.1293 H         1 <0>         0.0667
     42 H13        10.2667    0.9457    0.4487 H         1 <0>         0.0669
     43 H14         8.3318   -1.4159    0.3653 H         1 <0>         0.0666
     44 H15         9.2571   -0.9427    1.8147 H         1 <0>         0.0683
     45 H16         8.2089    1.2363    1.8709 H         1 <0>         0.0747
     46 H17         6.9092    0.0384    1.6836 H         1 <0>         0.0740
     47 H18         8.1200    3.6295    0.4163 H         1 <0>         0.4266
     48 H19        10.9316    8.1080   -1.7052 H         1 <0>         0.2098
@<TRIPOS>BOND
     1    1    7 ar
     2    1    2 ar
     3    1   31 1
     4    2    3 ar
     5    2   32 1
     6    3    4 ar
     7    3    8 1
     8    4    5 ar
     9    4   33 1
    10    5    6 1
    11    5    7 ar
    12    7   34 1
    13    8   13 ar
    14    8    9 ar
    15    9   10 ar
    16    9   35 1
    17   10   11 ar
    18   10   36 1
    19   11   12 ar
    20   11   20 1
    21   12   13 ar
    22   12   14 1
    23   13   37 1
    24   14   19 1
    25   14   15 2
    26   15   16 1
    27   15   38 1
    28   16   17 1
    29   16   39 1
    30   16   40 1
    31   17   18 1
    32   17   41 1
    33   17   42 1
    34   18   19 1
    35   18   43 1
    36   18   44 1
    37   19   45 1
    38   19   46 1
    39   20   21 am
    40   20   47 1
    41   21   22 2
    42   21   23 1
    43   23   28 2
    44   23   24 1
    45   24   25 1
    46   24   26 1
    47   26   27 2
    48   26   48 1
    49   27   28 1
    50   27   29 1
    51   29   30 3
@<TRIPOS>MOLECULE
CHEMBL1172346
   46    49     0     0     0
SMALL
USER_CHARGES

@<TRIPOS>ATOM
      1 C1         -0.0197    1.4055    0.0306 C.ar      1 <0>        -0.0781
      2 C2          1.1648    2.1116    0.0151 C.ar      1 <0>        -0.1273
      3 C3          2.3788    1.4384   -0.0053 C.ar      1 <0>         0.1925
      4 C4          2.4017    0.0356   -0.0096 C.ar      1 <0>        -0.0855
      5 C5          1.2048   -0.6750    0.0066 C.ar      1 <0>        -0.0668
      6 C6         -0.0064    0.0103    0.0265 C.ar      1 <0>        -0.0944
      7 C7         -1.2838   -0.7429    0.0433 C.ar      1 <0>         0.0216
      8 C8         -1.2931   -2.1409    0.0454 C.ar      1 <0>        -0.1740
      9 C9         -2.5038   -2.8020    0.0617 C.ar      1 <0>         0.1009
     10 N1         -3.6407   -2.1328    0.0748 N.ar      1 <0>        -0.4969
     11 C10        -3.6760   -0.8138    0.0734 C.ar      1 <0>         0.1015
     12 C11        -2.5114   -0.0744    0.0634 C.ar      1 <0>        -0.1730
     13 C12         3.6912   -0.6846   -0.0317 C.2       1 <0>        -0.0948
     14 C13         4.3613   -0.7165   -1.1589 C.2       1 <0>        -0.1208
     15 C14         5.6772   -1.4178   -1.3294 C.3       1 <0>        -0.0885
     16 C15         6.3056   -1.6984    0.0372 C.3       1 <0>        -0.1224
     17 C16         5.2508   -2.3629    0.9305 C.3       1 <0>        -0.1166
     18 C17         4.1607   -1.3319    1.2384 C.3       1 <0>        -0.0761
     19 N2          3.5740    2.1557   -0.0219 N.am      1 <0>        -0.6623
     20 C18         3.6485    3.3260   -0.6863 C.2       1 <0>         0.6278
     21 O1          2.6528    3.7970   -1.2015 O.2       1 <0>        -0.5289
     22 C19         4.9378    4.0355   -0.7884 C.2       1 <0>         0.0484
     23 N3          6.1251    3.6083   -0.2594 N.2       1 <0>        -0.5285
     24 C20         7.0617    4.5289   -0.5678 C.2       1 <0>        -0.0062
     25 C21         6.4263    5.5199   -1.2907 C.2       1 <0>        -0.0426
     26 N4          5.1342    5.1765   -1.4062 N.2       1 <0>        -0.4512
     27 C22         7.0379    6.6990   -1.8256 C.1       1 <0>         0.3320
     28 N5          7.5231    7.6345   -2.2499 N.1       1 <0>        -0.4914
     29 H1         -0.9610    1.9345    0.0505 H         1 <0>         0.1263
     30 H2          1.1480    3.1915    0.0184 H         1 <0>         0.1475
     31 H3          1.2160   -1.7549    0.0030 H         1 <0>         0.1266
     32 H4         -0.3662   -2.6951    0.0340 H         1 <0>         0.1356
     33 H5         -2.5211   -3.8819    0.0634 H         1 <0>         0.1541
     34 H6         -4.6293   -0.3063    0.0844 H         1 <0>         0.1548
     35 H7         -2.5476    1.0050    0.0669 H         1 <0>         0.1373
     36 H8          3.9413   -0.2086   -2.0145 H         1 <0>         0.1029
     37 H9          5.5193   -2.3597   -1.8548 H         1 <0>         0.0714
     38 H10         6.3489   -0.7887   -1.9136 H         1 <0>         0.0754
     39 H11         7.1582   -2.3670   -0.0821 H         1 <0>         0.0624
     40 H12         6.6314   -0.7619    0.4898 H         1 <0>         0.0707
     41 H13         4.8160   -3.2167    0.4107 H         1 <0>         0.0621
     42 H14         5.7139   -2.6935    1.8602 H         1 <0>         0.0638
     43 H15         4.5587   -0.5687    1.9072 H         1 <0>         0.0744
     44 H16         3.3206   -1.8306    1.7218 H         1 <0>         0.0692
     45 H17         4.3521    1.8126    0.4447 H         1 <0>         0.4197
     46 H18         8.1076    4.4974   -0.3004 H         1 <0>         0.1477
@<TRIPOS>BOND
     1    1    6 ar
     2    1    2 ar
     3    1   29 1
     4    2    3 ar
     5    2   30 1
     6    3    4 ar
     7    3   19 1
     8    4    5 ar
     9    4   13 1
    10    5    6 ar
    11    5   31 1
    12    6    7 1
    13    7   12 ar
    14    7    8 ar
    15    8    9 ar
    16    8   32 1
    17    9   10 ar
    18    9   33 1
    19   10   11 ar
    20   11   12 ar
    21   11   34 1
    22   12   35 1
    23   13   18 1
    24   13   14 2
    25   14   15 1
    26   14   36 1
    27   15   16 1
    28   15   37 1
    29   15   38 1
    30   16   17 1
    31   16   39 1
    32   16   40 1
    33   17   18 1
    34   17   41 1
    35   17   42 1
    36   18   43 1
    37   18   44 1
    38   19   20 am
    39   19   45 1
    40   20   21 2
    41   20   22 1
    42   22   26 2
    43   22   23 1
    44   23   24 1
    45   24   25 2
    46   24   46 1
    47   25   26 1
    48   25   27 1
    49   27   28 3
@<TRIPOS>MOLECULE
CHEMBL1172346__1
   47    50     0     0     0
SMALL
USER_CHARGES

@<TRIPOS>ATOM
      1 C1         -0.0197    1.4055    0.0306 C.ar      1 <0>        -0.0833
      2 C2          1.1648    2.1116    0.0151 C.ar      1 <0>        -0.1162
      3 C3          2.3788    1.4384   -0.0053 C.ar      1 <0>         0.1593
      4 C4          2.4017    0.0356   -0.0096 C.ar      1 <0>        -0.0647
      5 C5          1.2048   -0.6750    0.0066 C.ar      1 <0>        -0.0712
      6 C6         -0.0064    0.0103    0.0265 C.ar      1 <0>        -0.0649
      7 C7         -1.2838   -0.7429    0.0433 C.ar      1 <0>         0.0054
      8 C8         -1.2931   -2.1409    0.0454 C.ar      1 <0>        -0.1685
      9 C9         -2.5038   -2.8020    0.0617 C.ar      1 <0>         0.1041
     10 N1         -3.6407   -2.1328    0.0748 N.ar      1 <0>        -0.4885
     11 C10        -3.6760   -0.8138    0.0734 C.ar      1 <0>         0.1041
     12 C11        -2.5114   -0.0744    0.0634 C.ar      1 <0>        -0.1682
     13 C12         3.6912   -0.6846   -0.0317 C.2       1 <0>        -0.0995
     14 C13         4.3613   -0.7165   -1.1589 C.2       1 <0>        -0.1205
     15 C14         5.6772   -1.4178   -1.3294 C.3       1 <0>        -0.0912
     16 C15         6.3056   -1.6984    0.0372 C.3       1 <0>        -0.1226
     17 C16         5.2508   -2.3629    0.9305 C.3       1 <0>        -0.1195
     18 C17         4.1607   -1.3319    1.2384 C.3       1 <0>        -0.0777
     19 N2          3.5740    2.1557   -0.0219 N.am      1 <0>        -0.6392
     20 C18         3.6485    3.3260   -0.6863 C.2       1 <0>         0.6112
     21 O1          2.6528    3.7970   -1.2015 O.2       1 <0>        -0.5119
     22 C19         4.9378    4.0355   -0.7884 C.2       1 <0>         0.1593
     23 N3          5.1415    5.2278   -1.4278 N.pl3     1 <0>        -0.5108
     24 H1          4.4695    5.7523   -1.8907 H         1 <0>         0.4429
     25 C20         6.4470    5.5411   -1.2968 C.2       1 <0>         0.0651
     26 C21         7.0321    4.5228   -0.5694 C.2       1 <0>         0.0606
     27 N4          6.0754    3.6288   -0.2757 N.2       1 <0>        -0.4014
     28 C22         8.4109    4.4391   -0.1918 C.1       1 <0>         0.2938
     29 N5          9.5047    4.3727    0.1078 N.1       1 <0>        -0.3915
     30 H2         -0.9610    1.9345    0.0505 H         1 <0>         0.1324
     31 H3          1.1480    3.1915    0.0184 H         1 <0>         0.1460
     32 H4          1.2160   -1.7549    0.0030 H         1 <0>         0.1334
     33 H5         -0.3662   -2.6951    0.0340 H         1 <0>         0.1368
     34 H6         -2.5211   -3.8819    0.0634 H         1 <0>         0.1577
     35 H7         -4.6293   -0.3063    0.0844 H         1 <0>         0.1580
     36 H8         -2.5476    1.0050    0.0669 H         1 <0>         0.1378
     37 H9          3.9413   -0.2086   -2.0145 H         1 <0>         0.1029
     38 H10         5.5193   -2.3597   -1.8548 H         1 <0>         0.0769
     39 H11         6.3489   -0.7887   -1.9136 H         1 <0>         0.0742
     40 H12         7.1582   -2.3670   -0.0821 H         1 <0>         0.0664
     41 H13         6.6314   -0.7619    0.4898 H         1 <0>         0.0669
     42 H14         4.8160   -3.2167    0.4107 H         1 <0>         0.0656
     43 H15         5.7139   -2.6935    1.8602 H         1 <0>         0.0678
     44 H16         4.5587   -0.5687    1.9072 H         1 <0>         0.0743
     45 H17         3.3206   -1.8306    1.7218 H         1 <0>         0.0732
     46 H18         4.3521    1.8126    0.4447 H         1 <0>         0.4254
     47 H19         6.9403    6.4193   -1.6863 H         1 <0>         0.2096
@<TRIPOS>BOND
     1    1    6 ar
     2    1    2 ar
     3    1   30 1
     4    2    3 ar
     5    2   31 1
     6    3    4 ar
     7    3   19 1
     8    4    5 ar
     9    4   13 1
    10    5    6 ar
    11    5   32 1
    12    6    7 1
    13    7   12 ar
    14    7    8 ar
    15    8    9 ar
    16    8   33 1
    17    9   10 ar
    18    9   34 1
    19   10   11 ar
    20   11   12 ar
    21   11   35 1
    22   12   36 1
    23   13   18 1
    24   13   14 2
    25   14   15 1
    26   14   37 1
    27   15   16 1
    28   15   38 1
    29   15   39 1
    30   16   17 1
    31   16   40 1
    32   16   41 1
    33   17   18 1
    34   17   42 1
    35   17   43 1
    36   18   44 1
    37   18   45 1
    38   19   20 am
    39   19   46 1
    40   20   21 2
    41   20   22 1
    42   22   27 2
    43   22   23 1
    44   23   24 1
    45   23   25 1
    46   25   26 2
    47   25   47 1
    48   26   27 1
    49   26   28 1
    50   28   29 3
@<TRIPOS>MOLECULE
CHEMBL272888
   74    78     0     0     0
SMALL
USER_CHARGES

@<TRIPOS>ATOM
      1 C1          1.5721    0.9016    0.3894 C.3       1 <0>        -0.1309
      2 C2          0.9698   -0.4719    0.2425 C.ar      1 <0>        -0.0237
      3 C3          0.9993   -1.1113   -0.9803 C.ar      1 <0>        -0.1079
      4 C4          0.4483   -2.3710   -1.1202 C.ar      1 <0>        -0.1026
      5 C5         -0.1390   -3.0029   -0.0302 C.ar      1 <0>         0.1296
      6 C6         -0.1734   -2.3696    1.2023 C.ar      1 <0>        -0.0799
      7 C7          0.3871   -1.1000    1.3446 C.ar      1 <0>        -0.1278
      8 C8          0.3591   -0.4198    2.6568 C.2       1 <0>         0.5673
      9 O1          0.7771    0.7170    2.7613 O.2       1 <0>        -0.5100
     10 N1         -0.1299   -1.0599    3.7374 N.am      1 <0>        -0.6569
     11 C9         -0.0682   -0.4529    4.9989 C.ar      1 <0>        -0.0038
     12 C10        -0.2167    0.9245    5.1348 C.ar      1 <0>         0.1998
     13 N2         -0.1526    1.4626    6.3413 N.ar      1 <0>        -0.5386
     14 C11         0.0498    0.7079    7.4109 C.ar      1 <0>         0.5398
     15 N3          0.1958   -0.6054    7.3194 N.ar      1 <0>        -0.5393
     16 C12         0.1373   -1.2135    6.1464 C.ar      1 <0>         0.1684
     17 N4          0.1109    1.3088    8.6594 N.pl3     1 <0>        -0.6391
     18 C13         0.4404    0.5471    9.7878 C.ar      1 <0>         0.1392
     19 C14         1.3515   -0.4954    9.6800 C.ar      1 <0>        -0.0677
     20 C15         1.6763   -1.2462   10.7923 C.ar      1 <0>        -0.1620
     21 C16         1.0923   -0.9585   12.0190 C.ar      1 <0>         0.1752
     22 C17         0.1815    0.0843   12.1269 C.ar      1 <0>        -0.1606
     23 C18        -0.1397    0.8381   11.0155 C.ar      1 <0>        -0.1022
     24 N5          1.4211   -1.7198   13.1464 N.pl3     1 <0>        -0.6457
     25 C19         0.7222   -1.5188   14.4251 C.3       1 <0>         0.1009
     26 C20         0.2472   -2.8820   14.9386 C.3       1 <0>        -0.0233
     27 N6          1.3894   -3.8020   15.0104 N.4       1 <0>        -0.3836
     28 C21         1.9176   -4.0496   13.6629 C.3       1 <0>        -0.0232
     29 C22         2.4714   -2.7480   13.0846 C.3       1 <0>         0.0996
     30 C23         0.9554   -5.0730   15.6055 C.3       1 <0>        -0.0470
     31 N7         -0.6957   -4.2777   -0.1772 N.am      1 <0>        -0.6672
     32 C24        -1.7940   -4.6186    0.5257 C.2       1 <0>         0.5639
     33 O2         -2.3558   -3.7899    1.2153 O.2       1 <0>        -0.5113
     34 C25        -2.3155   -6.0000    0.4580 C.ar      1 <0>        -0.1408
     35 C26        -1.6694   -6.9556   -0.3285 C.ar      1 <0>        -0.0535
     36 C27        -2.1613   -8.2429   -0.3872 C.ar      1 <0>        -0.1219
     37 C28        -3.2926   -8.5881    0.3312 C.ar      1 <0>        -0.0409
     38 C29        -3.9375   -7.6461    1.1125 C.ar      1 <0>        -0.1886
     39 C30        -3.4526   -6.3563    1.1847 C.ar      1 <0>        -0.0070
     40 C31        -5.1688   -8.0310    1.8915 C.3       1 <0>         0.5101
     41 F1         -5.4606   -9.3805    1.6655 F         1 <0>        -0.1734
     42 F2         -4.9404   -7.8256    3.2563 F         1 <0>        -0.1744
     43 F3         -6.2485   -7.2445    1.4758 F         1 <0>        -0.1717
     44 H1          2.5820    0.8145    0.7902 H         1 <0>         0.0757
     45 H2          1.6088    1.3884   -0.5852 H         1 <0>         0.0634
     46 H3          0.9613    1.4954    1.0694 H         1 <0>         0.1030
     47 H4          1.4542   -0.6254   -1.8308 H         1 <0>         0.1400
     48 H5          0.4737   -2.8660   -2.0798 H         1 <0>         0.1357
     49 H6         -0.6293   -2.8588    2.0503 H         1 <0>         0.1366
     50 H7         -0.5245   -1.9409    3.6419 H         1 <0>         0.4142
     51 H8         -0.3816    1.5455    4.2667 H         1 <0>         0.1863
     52 H9          0.2518   -2.2853    6.0793 H         1 <0>         0.1721
     53 H10        -0.0746    2.2564    8.7511 H         1 <0>         0.4258
     54 H11         1.8057   -0.7191    8.7261 H         1 <0>         0.1373
     55 H12         2.3844   -2.0574   10.7083 H         1 <0>         0.1242
     56 H13        -0.2728    0.3080   13.0808 H         1 <0>         0.1261
     57 H14        -0.8449    1.6517   11.1002 H         1 <0>         0.1310
     58 H15         1.4038   -1.0720   15.1488 H         1 <0>         0.0864
     59 H16        -0.1367   -0.8647   14.2742 H         1 <0>         0.1258
     60 H17        -0.1882   -2.7650   15.9310 H         1 <0>         0.1401
     61 H18        -0.5024   -3.2857   14.2580 H         1 <0>         0.1321
     62 H19         2.7130   -4.7929   13.7152 H         1 <0>         0.1403
     63 H20         1.1174   -4.4180   13.0209 H         1 <0>         0.1321
     64 H21         2.7685   -2.9063   12.0479 H         1 <0>         0.1264
     65 H22         3.3327   -2.4275   13.6707 H         1 <0>         0.0861
     66 H23         0.1714   -5.5136   14.9897 H         1 <0>         0.1214
     67 H24         1.8025   -5.7569   15.6594 H         1 <0>         0.1247
     68 H25         0.5705   -4.8917   16.6090 H         1 <0>         0.1248
     69 H26        -0.2913   -4.9164   -0.7850 H         1 <0>         0.4136
     70 H27        -0.7867   -6.6874   -0.8899 H         1 <0>         0.1378
     71 H28        -1.6627   -8.9830   -0.9955 H         1 <0>         0.1476
     72 H29        -3.6738   -9.5973    0.2815 H         1 <0>         0.1483
     73 H30        -3.9545   -5.6230    1.7985 H         1 <0>         0.1495
     74 H31         2.1124   -3.3944   15.5841 H         1 <0>         0.4244
@<TRIPOS>BOND
     1    1    2 1
     2    1   44 1
     3    1   45 1
     4    1   46 1
     5    2    7 ar
     6    2    3 ar
     7    3    4 ar
     8    3   47 1
     9    4    5 ar
    10    4   48 1
    11    5    6 ar
    12    5   31 1
    13    6    7 ar
    14    6   49 1
    15    7    8 1
    16    8    9 2
    17    8   10 am
    18   10   11 1
    19   10   50 1
    20   11   16 ar
    21   11   12 ar
    22   12   13 ar
    23   12   51 1
    24   13   14 ar
    25   14   15 ar
    26   14   17 1
    27   15   16 ar
    28   16   52 1
    29   17   18 1
    30   17   53 1
    31   18   23 ar
    32   18   19 ar
    33   19   20 ar
    34   19   54 1
    35   20   21 ar
    36   20   55 1
    37   21   22 ar
    38   21   24 1
    39   22   23 ar
    40   22   56 1
    41   23   57 1
    42   24   29 1
    43   24   25 1
    44   25   26 1
    45   25   58 1
    46   25   59 1
    47   26   27 1
    48   26   60 1
    49   26   61 1
    50   27   28 1
    51   27   30 1
    52   27   74 1
    53   28   29 1
    54   28   62 1
    55   28   63 1
    56   29   64 1
    57   29   65 1
    58   30   66 1
    59   30   67 1
    60   30   68 1
    61   31   32 am
    62   31   69 1
    63   32   33 2
    64   32   34 1
    65   34   39 ar
    66   34   35 ar
    67   35   36 ar
    68   35   70 1
    69   36   37 ar
    70   36   71 1
    71   37   38 ar
    72   37   72 1
    73   38   39 ar
    74   38   40 1
    75   39   73 1
    76   40   41 1
    77   40   42 1
    78   40   43 1
@<TRIPOS>MOLECULE
CHEMBL272888__1
   73    77     0     0     0
SMALL
USER_CHARGES

@<TRIPOS>ATOM
      1 C1          1.5652    0.9068    0.3835 C.3       1 <0>        -0.1304
      2 C2          0.9623   -0.4664    0.2355 C.ar      1 <0>        -0.0251
      3 C3          0.9901   -1.1041   -0.9883 C.ar      1 <0>        -0.1091
      4 C4          0.4386   -2.3635   -1.1293 C.ar      1 <0>        -0.1051
      5 C5         -0.1475   -2.9967   -0.0394 C.ar      1 <0>         0.1291
      6 C6         -0.1802   -2.3651    1.1940 C.ar      1 <0>        -0.0797
      7 C7          0.3808   -1.0958    1.3374 C.ar      1 <0>        -0.1243
      8 C8          0.3547   -0.4174    2.6506 C.2       1 <0>         0.5651
      9 O1          0.7732    0.7191    2.7561 O.2       1 <0>        -0.5123
     10 N1         -0.1331   -1.0589    3.7309 N.am      1 <0>        -0.6539
     11 C9         -0.0697   -0.4536    4.9931 C.ar      1 <0>        -0.0183
     12 C10        -0.2177    0.9236    5.1312 C.ar      1 <0>         0.1998
     13 N2         -0.1520    1.4600    6.3383 N.ar      1 <0>        -0.5459
     14 C11         0.0516    0.7038    7.4066 C.ar      1 <0>         0.5460
     15 N3          0.1972   -0.6094    7.3131 N.ar      1 <0>        -0.5356
     16 C12         0.1370   -1.2159    6.1394 C.ar      1 <0>         0.1730
     17 N4          0.1144    1.3029    8.6558 N.pl3     1 <0>        -0.6338
     18 C13         0.4451    0.5396    9.7828 C.ar      1 <0>         0.1035
     19 C14         1.3558   -0.5029    9.6724 C.ar      1 <0>        -0.0608
     20 C15         1.6819   -1.2553   10.7833 C.ar      1 <0>        -0.1798
     21 C16         1.0994   -0.9692   12.0111 C.ar      1 <0>         0.2071
     22 C17         0.1890    0.0737   12.1215 C.ar      1 <0>        -0.1791
     23 C18        -0.1333    0.8291   11.0116 C.ar      1 <0>        -0.0945
     24 N5          1.4295   -1.7322   13.1370 N.pl3     1 <0>        -0.6324
     25 C19         0.7310   -1.5320   14.4158 C.3       1 <0>         0.1270
     26 C20         0.2392   -2.8930   14.9200 C.3       1 <0>         0.0383
     27 N6          1.3689   -3.8306   14.9694 N.3       1 <0>        -0.5425
     28 C21         1.9233   -4.0681   13.6300 C.3       1 <0>         0.0381
     29 C22         2.4800   -2.7595   13.0712 C.3       1 <0>         0.1262
     30 C23         0.9769   -5.0940   15.6084 C.3       1 <0>         0.0243
     31 N7         -0.7047   -4.2712   -0.1874 N.am      1 <0>        -0.6672
     32 C24        -1.8022   -4.6127    0.5163 C.2       1 <0>         0.5628
     33 O2         -2.3629   -3.7849    1.2078 O.2       1 <0>        -0.5093
     34 C25        -2.3242   -5.9939    0.4475 C.ar      1 <0>        -0.1395
     35 C26        -1.6793   -6.9486   -0.3411 C.ar      1 <0>        -0.0539
     36 C27        -2.1716   -8.2357   -0.4010 C.ar      1 <0>        -0.1227
     37 C28        -3.3020   -8.5816    0.3184 C.ar      1 <0>        -0.0417
     38 C29        -3.9458   -7.6405    1.1017 C.ar      1 <0>        -0.1883
     39 C30        -3.4605   -6.3509    1.1750 C.ar      1 <0>        -0.0065
     40 C31        -5.1762   -8.0262    1.8817 C.3       1 <0>         0.5099
     41 F1         -5.4686   -9.3752    1.6542 F         1 <0>        -0.1742
     42 F2         -4.9460   -7.8226    3.2465 F         1 <0>        -0.1726
     43 F3         -6.2562   -7.2388    1.4684 F         1 <0>        -0.1724
     44 H1          2.5756    0.8189    0.7829 H         1 <0>         0.0756
     45 H2          1.6008    1.3949   -0.5905 H         1 <0>         0.0616
     46 H3          0.9554    1.4998    1.0650 H         1 <0>         0.1038
     47 H4          1.4441   -0.6171   -1.8387 H         1 <0>         0.1385
     48 H5          0.4627   -2.8572   -2.0895 H         1 <0>         0.1342
     49 H6         -0.6351   -2.8553    2.0420 H         1 <0>         0.1374
     50 H7         -0.5281   -1.9396    3.6346 H         1 <0>         0.4127
     51 H8         -0.3835    1.5458    4.2641 H         1 <0>         0.1827
     52 H9          0.2512   -2.2876    6.0706 H         1 <0>         0.1701
     53 H10        -0.0707    2.2505    8.7491 H         1 <0>         0.4219
     54 H11         1.8088   -0.7254    8.7176 H         1 <0>         0.1301
     55 H12         2.3896   -2.0666   10.6973 H         1 <0>         0.1237
     56 H13        -0.2640    0.2962   13.0763 H         1 <0>         0.1254
     57 H14        -0.8382    1.6428   11.0983 H         1 <0>         0.1237
     58 H15         1.4166   -1.0979   15.1435 H         1 <0>         0.0693
     59 H16        -0.1199   -0.8670   14.2680 H         1 <0>         0.0861
     60 H17        -0.1836   -2.7799   15.9183 H         1 <0>         0.0854
     61 H18        -0.5235   -3.2777   14.2430 H         1 <0>         0.0384
     62 H19         2.7220   -4.8072   13.6927 H         1 <0>         0.0855
     63 H20         1.1372   -4.4365   12.9709 H         1 <0>         0.0381
     64 H21         2.7848   -2.9056   12.0350 H         1 <0>         0.0867
     65 H22         3.3369   -2.4456   13.6672 H         1 <0>         0.0691
     66 H23         0.1669   -5.5522   15.0409 H         1 <0>         0.0256
     67 H24         1.8317   -5.7698   15.6319 H         1 <0>         0.0701
     68 H25         0.6411   -4.8973   16.6266 H         1 <0>         0.0705
     69 H26        -0.3012   -4.9091   -0.7966 H         1 <0>         0.4128
     70 H27        -0.7972   -6.6798   -0.9033 H         1 <0>         0.1375
     71 H28        -1.6739   -8.9751   -1.0110 H         1 <0>         0.1468
     72 H29        -3.6836   -9.5907    0.2677 H         1 <0>         0.1476
     73 H30        -3.9614   -5.6183    1.7905 H         1 <0>         0.1501
@<TRIPOS>BOND
     1    1    2 1
     2    1   44 1
     3    1   45 1
     4    1   46 1
     5    2    7 ar
     6    2    3 ar
     7    3    4 ar
     8    3   47 1
     9    4    5 ar
    10    4   48 1
    11    5    6 ar
    12    5   31 1
    13    6    7 ar
    14    6   49 1
    15    7    8 1
    16    8    9 2
    17    8   10 am
    18   10   11 1
    19   10   50 1
    20   11   16 ar
    21   11   12 ar
    22   12   13 ar
    23   12   51 1
    24   13   14 ar
    25   14   15 ar
    26   14   17 1
    27   15   16 ar
    28   16   52 1
    29   17   18 1
    30   17   53 1
    31   18   23 ar
    32   18   19 ar
    33   19   20 ar
    34   19   54 1
    35   20   21 ar
    36   20   55 1
    37   21   22 ar
    38   21   24 1
    39   22   23 ar
    40   22   56 1
    41   23   57 1
    42   24   29 1
    43   24   25 1
    44   25   26 1
    45   25   58 1
    46   25   59 1
    47   26   27 1
    48   26   60 1
    49   26   61 1
    50   27   28 1
    51   27   30 1
    52   28   29 1
    53   28   62 1
    54   28   63 1
    55   29   64 1
    56   29   65 1
    57   30   66 1
    58   30   67 1
    59   30   68 1
    60   31   32 am
    61   31   69 1
    62   32   33 2
    63   32   34 1
    64   34   39 ar
    65   34   35 ar
    66   35   36 ar
    67   35   70 1
    68   36   37 ar
    69   36   71 1
    70   37   38 ar
    71   37   72 1
    72   38   39 ar
    73   38   40 1
    74   39   73 1
    75   40   41 1
    76   40   42 1
    77   40   43 1
@<TRIPOS>MOLECULE
CHEMBL1172345
   47    50     0     0     0
SMALL
USER_CHARGES

@<TRIPOS>ATOM
      1 C1         -0.0197    1.4055    0.0306 C.ar      1 <0>        -0.0724
      2 C2          1.1649    2.1116    0.0150 C.ar      1 <0>        -0.1278
      3 C3          2.3788    1.4384   -0.0053 C.ar      1 <0>         0.2010
      4 C4          2.4017    0.0357   -0.0096 C.ar      1 <0>        -0.0846
      5 C5          1.2047   -0.6749    0.0066 C.ar      1 <0>        -0.0617
      6 C6         -0.0064    0.0104    0.0265 C.ar      1 <0>        -0.1030
      7 C7         -1.2839   -0.7429    0.0433 C.ar      1 <0>         0.0253
      8 C8         -1.2929   -2.1409    0.0454 C.ar      1 <0>        -0.1281
      9 C9         -2.5032   -2.8025    0.0612 C.ar      1 <0>         0.0813
     10 N1         -3.6413   -2.1330    0.0739 N.ar      1 <0>        -0.1276
     11 O1         -4.8609   -2.8522    0.0899 O.3       1 <0>        -0.5618
     12 C10        -3.6762   -0.8130    0.0724 C.ar      1 <0>         0.0819
     13 C11        -2.5114   -0.0741    0.0634 C.ar      1 <0>        -0.1268
     14 C12         3.6912   -0.6845   -0.0316 C.2       1 <0>        -0.0983
     15 C13         4.3613   -0.7164   -1.1587 C.2       1 <0>        -0.1175
     16 C14         5.6775   -1.4173   -1.3291 C.3       1 <0>        -0.0894
     17 C15         6.3059   -1.6975    0.0375 C.3       1 <0>        -0.1227
     18 C16         5.2513   -2.3621    0.9309 C.3       1 <0>        -0.1169
     19 C17         4.1607   -1.3318    1.2385 C.3       1 <0>        -0.0759
     20 N2          3.5743    2.1559   -0.0219 N.am      1 <0>        -0.6625
     21 C18         3.6487    3.3261   -0.6863 C.2       1 <0>         0.6286
     22 O2          2.6531    3.7972   -1.2015 O.2       1 <0>        -0.5277
     23 C19         4.9381    4.0356   -0.7884 C.2       1 <0>         0.0468
     24 N3          6.1254    3.6085   -0.2594 N.2       1 <0>        -0.5285
     25 C20         7.0618    4.5293   -0.5673 C.2       1 <0>        -0.0054
     26 C21         6.4264    5.5204   -1.2900 C.2       1 <0>        -0.0413
     27 N4          5.1345    5.1767   -1.4062 N.2       1 <0>        -0.4507
     28 C22         7.0379    6.6999   -1.8245 C.1       1 <0>         0.3312
     29 N5          7.5230    7.6355   -2.2484 N.1       1 <0>        -0.4899
     30 H1         -0.9610    1.9345    0.0505 H         1 <0>         0.1288
     31 H2          1.1481    3.1914    0.0183 H         1 <0>         0.1499
     32 H3          1.2159   -1.7549    0.0031 H         1 <0>         0.1290
     33 H4         -0.3658   -2.6948    0.0344 H         1 <0>         0.1638
     34 H5         -2.5202   -3.8823    0.0629 H         1 <0>         0.1809
     35 H6         -4.6293   -0.3051    0.0831 H         1 <0>         0.1815
     36 H7         -2.5472    1.0053    0.0673 H         1 <0>         0.1655
     37 H8          3.9411   -0.2088   -2.0145 H         1 <0>         0.1034
     38 H9          5.5199   -2.3593   -1.8543 H         1 <0>         0.0722
     39 H10         6.3489   -0.7881   -1.9135 H         1 <0>         0.0760
     40 H11         7.1588   -2.3657   -0.0816 H         1 <0>         0.0628
     41 H12         6.6314   -0.7607    0.4899 H         1 <0>         0.0708
     42 H13         4.8168   -3.2161    0.4113 H         1 <0>         0.0624
     43 H14         5.7145   -2.6924    1.8607 H         1 <0>         0.0643
     44 H15         4.5583   -0.5685    1.9075 H         1 <0>         0.0746
     45 H16         3.3207   -1.8308    1.7217 H         1 <0>         0.0695
     46 H17         4.3524    1.8127    0.4447 H         1 <0>         0.4209
     47 H18         8.1077    4.4979   -0.2998 H         1 <0>         0.1481
@<TRIPOS>BOND
     1    1    6 ar
     2    1    2 ar
     3    1   30 1
     4    2    3 ar
     5    2   31 1
     6    3    4 ar
     7    3   20 1
     8    4    5 ar
     9    4   14 1
    10    5    6 ar
    11    5   32 1
    12    6    7 1
    13    7   13 ar
    14    7    8 ar
    15    8    9 ar
    16    8   33 1
    17    9   10 ar
    18    9   34 1
    19   10   11 1
    20   10   12 ar
    21   12   13 ar
    22   12   35 1
    23   13   36 1
    24   14   19 1
    25   14   15 2
    26   15   16 1
    27   15   37 1
    28   16   17 1
    29   16   38 1
    30   16   39 1
    31   17   18 1
    32   17   40 1
    33   17   41 1
    34   18   19 1
    35   18   42 1
    36   18   43 1
    37   19   44 1
    38   19   45 1
    39   20   21 am
    40   20   46 1
    41   21   22 2
    42   21   23 1
    43   23   27 2
    44   23   24 1
    45   24   25 1
    46   25   26 2
    47   25   47 1
    48   26   27 1
    49   26   28 1
    50   28   29 3
@<TRIPOS>MOLECULE
CHEMBL1172345__1
   48    51     0     0     0
SMALL
USER_CHARGES

@<TRIPOS>ATOM
      1 C1         -0.0197    1.4055    0.0306 C.ar      1 <0>        -0.0782
      2 C2          1.1649    2.1116    0.0150 C.ar      1 <0>        -0.1166
      3 C3          2.3788    1.4384   -0.0053 C.ar      1 <0>         0.1675
      4 C4          2.4017    0.0357   -0.0096 C.ar      1 <0>        -0.0637
      5 C5          1.2047   -0.6749    0.0066 C.ar      1 <0>        -0.0667
      6 C6         -0.0064    0.0104    0.0265 C.ar      1 <0>        -0.0729
      7 C7         -1.2839   -0.7429    0.0433 C.ar      1 <0>         0.0069
      8 C8         -1.2929   -2.1409    0.0454 C.ar      1 <0>        -0.1211
      9 C9         -2.5032   -2.8025    0.0612 C.ar      1 <0>         0.0819
     10 N1         -3.6413   -2.1330    0.0739 N.ar      1 <0>        -0.1231
     11 O1         -4.8609   -2.8522    0.0899 O.3       1 <0>        -0.5495
     12 C10        -3.6762   -0.8130    0.0724 C.ar      1 <0>         0.0819
     13 C11        -2.5114   -0.0741    0.0634 C.ar      1 <0>        -0.1206
     14 C12         3.6912   -0.6845   -0.0316 C.2       1 <0>        -0.1029
     15 C13         4.3613   -0.7164   -1.1587 C.2       1 <0>        -0.1172
     16 C14         5.6775   -1.4173   -1.3291 C.3       1 <0>        -0.0921
     17 C15         6.3059   -1.6975    0.0375 C.3       1 <0>        -0.1229
     18 C16         5.2513   -2.3621    0.9309 C.3       1 <0>        -0.1198
     19 C17         4.1607   -1.3318    1.2385 C.3       1 <0>        -0.0775
     20 N2          3.5743    2.1559   -0.0219 N.am      1 <0>        -0.6406
     21 C18         3.6487    3.3261   -0.6863 C.2       1 <0>         0.6128
     22 O2          2.6531    3.7972   -1.2015 O.2       1 <0>        -0.5108
     23 C19         4.9381    4.0356   -0.7884 C.2       1 <0>         0.1577
     24 N3          5.1417    5.2279   -1.4279 N.pl3     1 <0>        -0.5107
     25 H1          4.4697    5.7527   -1.8904 H         1 <0>         0.4431
     26 C20         6.4474    5.5410   -1.2973 C.2       1 <0>         0.0663
     27 C21         7.0325    4.5226   -0.5701 C.2       1 <0>         0.0613
     28 N4          6.0756    3.6289   -0.2757 N.2       1 <0>        -0.4009
     29 C22         8.4114    4.4386   -0.1929 C.1       1 <0>         0.2930
     30 N5          9.5053    4.3720    0.1063 N.1       1 <0>        -0.3904
     31 H2         -0.9610    1.9345    0.0505 H         1 <0>         0.1347
     32 H3          1.1481    3.1914    0.0183 H         1 <0>         0.1484
     33 H4          1.2159   -1.7549    0.0031 H         1 <0>         0.1356
     34 H5         -0.3658   -2.6948    0.0344 H         1 <0>         0.1646
     35 H6         -2.5202   -3.8823    0.0629 H         1 <0>         0.1841
     36 H7         -4.6293   -0.3051    0.0831 H         1 <0>         0.1843
     37 H8         -2.5472    1.0053    0.0673 H         1 <0>         0.1656
     38 H9          3.9411   -0.2088   -2.0145 H         1 <0>         0.1034
     39 H10         5.5199   -2.3593   -1.8543 H         1 <0>         0.0776
     40 H11         6.3489   -0.7881   -1.9135 H         1 <0>         0.0748
     41 H12         7.1588   -2.3657   -0.0816 H         1 <0>         0.0668
     42 H13         6.6314   -0.7607    0.4899 H         1 <0>         0.0671
     43 H14         4.8168   -3.2161    0.4113 H         1 <0>         0.0659
     44 H15         5.7145   -2.6924    1.8607 H         1 <0>         0.0682
     45 H16         4.5583   -0.5685    1.9075 H         1 <0>         0.0746
     46 H17         3.3207   -1.8308    1.7217 H         1 <0>         0.0735
     47 H18         4.3524    1.8127    0.4447 H         1 <0>         0.4265
     48 H19         6.9407    6.4192   -1.6869 H         1 <0>         0.2099
@<TRIPOS>BOND
     1    1    6 ar
     2    1    2 ar
     3    1   31 1
     4    2    3 ar
     5    2   32 1
     6    3    4 ar
     7    3   20 1
     8    4    5 ar
     9    4   14 1
    10    5    6 ar
    11    5   33 1
    12    6    7 1
    13    7   13 ar
    14    7    8 ar
    15    8    9 ar
    16    8   34 1
    17    9   10 ar
    18    9   35 1
    19   10   11 1
    20   10   12 ar
    21   12   13 ar
    22   12   36 1
    23   13   37 1
    24   14   19 1
    25   14   15 2
    26   15   16 1
    27   15   38 1
    28   16   17 1
    29   16   39 1
    30   16   40 1
    31   17   18 1
    32   17   41 1
    33   17   42 1
    34   18   19 1
    35   18   43 1
    36   18   44 1
    37   19   45 1
    38   19   46 1
    39   20   21 am
    40   20   47 1
    41   21   22 2
    42   21   23 1
    43   23   28 2
    44   23   24 1
    45   24   25 1
    46   24   26 1
    47   26   27 2
    48   26   48 1
    49   27   28 1
    50   27   29 1
    51   29   30 3
@<TRIPOS>MOLECULE
CHEMBL521255
   54    57     0     0     0
SMALL
USER_CHARGES

@<TRIPOS>ATOM
      1 C1          5.3110   -0.1286    0.4448 C.3       1 <0>         0.0205
      2 O1          4.9139   -1.4903    0.2714 O.3       1 <0>        -0.3059
      3 C2          4.1089   -1.7685   -0.7887 C.ar      1 <0>         0.1211
      4 C3          3.7252   -0.7630   -1.6289 C.ar      1 <0>        -0.1458
      5 C4          2.8951   -1.0469   -2.7230 C.ar      1 <0>        -0.0983
      6 C5          2.4578   -2.3736   -2.9530 C.ar      1 <0>         0.1586
      7 C6          2.8651   -3.3895   -2.0755 C.ar      1 <0>        -0.1615
      8 C7          3.6853   -3.0857   -1.0122 C.ar      1 <0>         0.1401
      9 O2          4.0836   -4.0722   -0.1675 O.3       1 <0>        -0.3114
     10 C8          3.6186   -5.3939   -0.4485 C.3       1 <0>         0.0180
     11 C9          4.1665   -6.3615    0.6025 C.3       1 <0>         0.0071
     12 N1          3.6067   -6.0239    1.9180 N.4       1 <0>        -0.4815
     13 C10         4.1327   -6.9529    2.9271 C.3       1 <0>        -0.0847
     14 C11         3.1318   -7.8690    3.6339 C.3       1 <0>        -0.1543
     15 C12         3.7589   -6.6948    4.3881 C.3       1 <0>        -0.1539
     16 N2          1.6643   -2.6519   -3.9984 N.ar      1 <0>        -0.4691
     17 C13         1.2682   -1.7268   -4.8341 C.ar      1 <0>         0.1716
     18 C14         1.6530   -0.3847   -4.6831 C.ar      1 <0>        -0.1986
     19 C15         2.4826   -0.0247   -3.6098 C.ar      1 <0>         0.2796
     20 N3          2.8822    1.2820   -3.4256 N.pl3     1 <0>        -0.6863
     21 C16         4.0020    1.7730   -4.1044 C.ar      1 <0>         0.2277
     22 C17         4.6284    0.9930   -5.0683 C.ar      1 <0>        -0.1542
     23 C18         5.7338    1.4796   -5.7381 C.ar      1 <0>        -0.0934
     24 C19         6.2187    2.7440   -5.4494 C.ar      1 <0>         0.0630
     25 C20         5.5962    3.5240   -4.4881 C.ar      1 <0>        -0.0265
     26 C21         4.4858    3.0432   -3.8199 C.ar      1 <0>        -0.1442
     27 Cl1         6.2068    5.1087   -4.1279 Cl        1 <0>        -0.0396
     28 F1          7.3005    3.2176   -6.1056 F         1 <0>        -0.1275
     29 C22         1.1914    0.6334   -5.6400 C.2       1 <0>         0.5638
     30 O3          1.4468    1.8073   -5.4496 O.2       1 <0>        -0.5123
     31 N4          0.4855    0.2651   -6.7275 N.am      1 <0>        -0.8473
     32 H1          5.8606    0.2045   -0.4356 H         1 <0>         0.0634
     33 H2          4.4261    0.4938    0.5777 H         1 <0>         0.0617
     34 H3          5.9492   -0.0454    1.3245 H         1 <0>         0.1104
     35 H4          4.0597    0.2484   -1.4512 H         1 <0>         0.1527
     36 H5          2.5404   -4.4069   -2.2362 H         1 <0>         0.1552
     37 H6          2.5290   -5.4087   -0.4230 H         1 <0>         0.0920
     38 H7          3.9631   -5.6979   -1.4369 H         1 <0>         0.1167
     39 H8          3.8858   -7.3812    0.3390 H         1 <0>         0.1544
     40 H9          5.2530   -6.2815    0.6386 H         1 <0>         0.1451
     41 H10         3.8665   -5.0799    2.1620 H         1 <0>         0.4365
     42 H11         5.1262   -7.3532    2.7249 H         1 <0>         0.1792
     43 H12         2.0829   -7.7825    3.3502 H         1 <0>         0.1212
     44 H13         3.4666   -8.8725    3.8968 H         1 <0>         0.1344
     45 H14         4.5063   -6.9257    5.1471 H         1 <0>         0.1347
     46 H15         3.1226   -5.8357    4.6005 H         1 <0>         0.1214
     47 H16         0.6298   -2.0019   -5.6606 H         1 <0>         0.1698
     48 H17         2.3866    1.8607   -2.8253 H         1 <0>         0.4211
     49 H18         4.2512    0.0064   -5.2936 H         1 <0>         0.1270
     50 H19         6.2207    0.8731   -6.4874 H         1 <0>         0.1463
     51 H20         3.9977    3.6529   -3.0740 H         1 <0>         0.1447
     52 H21         0.2818   -0.6710   -6.8794 H         1 <0>         0.4005
     53 H22         0.1812    0.9362   -7.3583 H         1 <0>         0.4122
     54 H23         2.6009   -6.0979    1.8846 H         1 <0>         0.4250
@<TRIPOS>BOND
     1    1    2 1
     2    1   32 1
     3    1   33 1
     4    1   34 1
     5    2    3 1
     6    3    8 ar
     7    3    4 ar
     8    4    5 ar
     9    4   35 1
    10    5   19 ar
    11    5    6 ar
    12    6    7 ar
    13    6   16 ar
    14    7    8 ar
    15    7   36 1
    16    8    9 1
    17    9   10 1
    18   10   11 1
    19   10   37 1
    20   10   38 1
    21   11   12 1
    22   11   39 1
    23   11   40 1
    24   12   13 1
    25   12   41 1
    26   12   54 1
    27   13   15 1
    28   13   14 1
    29   13   42 1
    30   14   15 1
    31   14   43 1
    32   14   44 1
    33   15   45 1
    34   15   46 1
    35   16   17 ar
    36   17   18 ar
    37   17   47 1
    38   18   19 ar
    39   18   29 1
    40   19   20 1
    41   20   21 1
    42   20   48 1
    43   21   26 ar
    44   21   22 ar
    45   22   23 ar
    46   22   49 1
    47   23   24 ar
    48   23   50 1
    49   24   25 ar
    50   24   28 1
    51   25   26 ar
    52   25   27 1
    53   26   51 1
    54   29   30 2
    55   29   31 am
    56   31   52 1
    57   31   53 1
@<TRIPOS>MOLECULE
CHEMBL521255__1
   55    58     0     0     0
SMALL
USER_CHARGES

@<TRIPOS>ATOM
      1 C1         -3.1260   -0.0279    3.6470 C.3       1 <0>         0.0115
      2 O1         -2.7971   -1.4166    3.5731 O.3       1 <0>        -0.2889
      3 C2         -1.4760   -1.7389    3.5725 C.ar      1 <0>         0.1444
      4 C3         -0.5382   -0.7494    3.6464 C.ar      1 <0>        -0.1258
      5 C4          0.8249   -1.0789    3.6460 C.ar      1 <0>        -0.0792
      6 C5          1.2243   -2.4349    3.5690 C.ar      1 <0>         0.1659
      7 C6          0.2421   -3.4337    3.4934 C.ar      1 <0>        -0.2195
      8 C7         -1.0896   -3.0844    3.5017 C.ar      1 <0>         0.2087
      9 O2         -2.0390   -4.0536    3.4349 O.3       1 <0>        -0.2944
     10 C8         -1.5819   -5.4057    3.3646 C.3       1 <0>         0.0127
     11 C9         -2.7854   -6.3480    3.2960 C.3       1 <0>         0.0049
     12 N1         -3.5157   -6.1190    2.0421 N.4       1 <0>        -0.4822
     13 C10        -4.6711   -7.0237    1.9762 C.3       1 <0>        -0.0895
     14 C11        -4.6902   -8.0649    0.8553 C.3       1 <0>        -0.1521
     15 C12        -5.6306   -6.8595    0.7958 C.3       1 <0>        -0.1513
     16 N2          2.5268   -2.7568    3.5690 N.ar      1 <0>        -0.4552
     17 C13         3.4656   -1.8486    3.6393 C.ar      1 <0>         0.2345
     18 C14         3.1614   -0.4800    3.7186 C.ar      1 <0>        -0.1966
     19 C15         1.8179   -0.0741    3.7221 C.ar      1 <0>         0.3916
     20 N3          1.4771    1.2597    3.7977 N.pl3     1 <0>        -0.7018
     21 C16         1.2835    1.8624    5.0448 C.ar      1 <0>         0.2017
     22 C17         1.6255    1.1821    6.2067 C.ar      1 <0>        -0.1502
     23 C18         1.4341    1.7788    7.4373 C.ar      1 <0>        -0.0952
     24 C19         0.9014    3.0546    7.5143 C.ar      1 <0>         0.0862
     25 C20         0.5589    3.7354    6.3569 C.ar      1 <0>        -0.0309
     26 C21         0.7546    3.1440    5.1230 C.ar      1 <0>        -0.1263
     27 Cl1        -0.1094    5.3345    6.4565 Cl        1 <0>        -0.0214
     28 F1          0.7147    3.6361    8.7193 F         1 <0>        -0.1178
     29 C22         4.2399    0.5181    3.7970 C.2       1 <0>         0.5636
     30 O3          3.9707    1.6926    3.9634 O.2       1 <0>        -0.4795
     31 N4          5.5259    0.1308    3.6846 N.am      1 <0>        -0.8392
     32 H1         -2.6978    0.4930    2.7907 H         1 <0>         0.0715
     33 H2         -4.2096    0.0898    3.6393 H         1 <0>         0.1248
     34 H3         -2.7214    0.3928    4.5676 H         1 <0>         0.0729
     35 H4         -0.8453    0.2843    3.7047 H         1 <0>         0.1775
     36 H5          0.5295   -4.4730    3.4338 H         1 <0>         0.1729
     37 H6         -0.9674   -5.5357    2.4738 H         1 <0>         0.0988
     38 H7         -0.9904   -5.6358    4.2508 H         1 <0>         0.1232
     39 H8         -2.4403   -7.3813    3.3320 H         1 <0>         0.1614
     40 H9         -3.4459   -6.1559    4.1415 H         1 <0>         0.1502
     41 H10        -3.8351   -5.1625    2.0088 H         1 <0>         0.4350
     42 H11        -5.0994   -7.3100    2.9368 H         1 <0>         0.1815
     43 H12        -3.8453   -8.0785    0.1667 H         1 <0>         0.1217
     44 H13        -5.1309   -9.0365    1.0783 H         1 <0>         0.1371
     45 H14        -6.6900   -7.0381    0.9797 H         1 <0>         0.1377
     46 H15        -5.4044   -6.0801    0.0681 H         1 <0>         0.1221
     47 H16         4.5000   -2.1591    3.6367 H         1 <0>         0.2176
     48 H17         1.3716    1.7801    2.9859 H         1 <0>         0.4361
     49 H18         2.0404    0.1867    6.1476 H         1 <0>         0.1220
     50 H19         1.7000    1.2498    8.3406 H         1 <0>         0.1523
     51 H20         0.4922    3.6765    4.2207 H         1 <0>         0.1515
     52 H21         5.7406   -0.8058    3.5520 H         1 <0>         0.3984
     53 H22         6.2368    0.7887    3.7363 H         1 <0>         0.4264
     54 H23        -2.9042   -6.2969    1.2595 H         1 <0>         0.4250
     55 H24         2.7800   -3.6916    3.5156 H         1 <0>         0.4533
@<TRIPOS>BOND
     1    1    2 1
     2    1   32 1
     3    1   33 1
     4    1   34 1
     5    2    3 1
     6    3    8 ar
     7    3    4 ar
     8    4    5 ar
     9    4   35 1
    10    5   19 ar
    11    5    6 ar
    12    6    7 ar
    13    6   16 ar
    14    7    8 ar
    15    7   36 1
    16    8    9 1
    17    9   10 1
    18   10   11 1
    19   10   37 1
    20   10   38 1
    21   11   12 1
    22   11   39 1
    23   11   40 1
    24   12   13 1
    25   12   41 1
    26   12   54 1
    27   13   15 1
    28   13   14 1
    29   13   42 1
    30   14   15 1
    31   14   43 1
    32   14   44 1
    33   15   45 1
    34   15   46 1
    35   16   17 ar
    36   16   55 1
    37   17   18 ar
    38   17   47 1
    39   18   19 ar
    40   18   29 1
    41   19   20 1
    42   20   21 1
    43   20   48 1
    44   21   26 ar
    45   21   22 ar
    46   22   23 ar
    47   22   49 1
    48   23   24 ar
    49   23   50 1
    50   24   25 ar
    51   24   28 1
    52   25   26 ar
    53   25   27 1
    54   26   51 1
    55   29   30 2
    56   29   31 am
    57   31   52 1
    58   31   53 1
@<TRIPOS>MOLECULE
CHEMBL479446
   59    62     0     0     0
SMALL
USER_CHARGES

@<TRIPOS>ATOM
      1 C1         -2.3300    1.6739   -3.2193 C.3       1 <0>         0.0164
      2 O1         -2.4364    0.2543   -3.3443 O.3       1 <0>        -0.2944
      3 C2         -1.2845   -0.4342   -3.5557 C.ar      1 <0>         0.1845
      4 C3         -0.0903    0.2445   -3.6334 C.ar      1 <0>        -0.2220
      5 C4          1.1028   -0.4609   -3.8511 C.ar      1 <0>         0.1510
      6 C5          1.0594   -1.8692   -3.9884 C.ar      1 <0>        -0.0625
      7 C6         -0.1672   -2.5438   -3.9059 C.ar      1 <0>        -0.1468
      8 C7         -1.3245   -1.8309   -3.6868 C.ar      1 <0>         0.2349
      9 N1         -2.5487   -2.5026   -3.5989 N.pl3     1 <0>        -0.7104
     10 C8         -2.5957   -3.9605   -3.7351 C.3       1 <0>         0.1135
     11 C9         -4.0428   -4.4389   -3.6004 C.3       1 <0>         0.0424
     12 N2         -4.0899   -5.9008   -3.7369 N.3       1 <0>        -0.5324
     13 C10        -3.7167   -6.3152   -5.0972 C.3       1 <0>         0.0119
     14 C11        -3.7210   -7.8440   -5.1783 C.3       1 <0>         0.0622
     15 O2         -5.0101   -8.3329   -4.7979 O.3       1 <0>        -0.3812
     16 C12        -5.4052   -7.9485   -3.4783 C.3       1 <0>         0.0619
     17 C13        -5.4179   -6.4207   -3.3799 C.3       1 <0>         0.0183
     18 C14         2.2657   -2.5754   -4.2078 C.ar      1 <0>         0.3704
     19 C15         3.4550   -1.8336   -4.2785 C.ar      1 <0>        -0.2065
     20 C16         3.4039   -0.4379   -4.1309 C.ar      1 <0>         0.2102
     21 N3          2.2741    0.1893   -3.9285 N.ar      1 <0>        -0.4492
     22 C17         4.7417   -2.5109   -4.5043 C.2       1 <0>         0.5666
     23 O3          4.7686   -3.7061   -4.7292 O.2       1 <0>        -0.4876
     24 N4          5.8903   -1.8071   -4.4621 N.am      1 <0>        -0.8428
     25 N5          2.2725   -3.9469   -4.3471 N.pl3     1 <0>        -0.6884
     26 C18         2.3777   -4.5207   -5.6196 C.ar      1 <0>         0.1744
     27 C19         2.6174   -3.7181   -6.7267 C.ar      1 <0>        -0.1231
     28 C20         2.7207   -4.2861   -7.9816 C.ar      1 <0>        -0.1167
     29 C21         2.5851   -5.6554   -8.1372 C.ar      1 <0>         0.1014
     30 C22         2.3460   -6.4595   -7.0356 C.ar      1 <0>        -0.1452
     31 C23         2.2478   -5.8965   -5.7762 C.ar      1 <0>         0.0885
     32 F1          2.0201   -6.6813   -4.7004 F         1 <0>        -0.1260
     33 F2          2.6859   -6.2077   -9.3660 F         1 <0>        -0.1263
     34 H1         -1.6844    1.9169   -2.3754 H         1 <0>         0.0704
     35 H2         -1.9047    2.0882   -4.1333 H         1 <0>         0.0703
     36 H3         -3.3199    2.0992   -3.0538 H         1 <0>         0.1209
     37 H4         -0.0713    1.3191   -3.5273 H         1 <0>         0.1670
     38 H5         -0.2035   -3.6181   -4.0105 H         1 <0>         0.1640
     39 H6         -3.3663   -2.0030   -3.4478 H         1 <0>         0.4178
     40 H7         -2.2079   -4.2468   -4.7127 H         1 <0>         0.0745
     41 H8         -1.9877   -4.4181   -2.9547 H         1 <0>         0.0849
     42 H9         -4.4306   -4.1526   -2.6228 H         1 <0>         0.0881
     43 H10        -4.6509   -3.9813   -4.3807 H         1 <0>         0.0475
     44 H11        -4.4346   -5.9107   -5.8107 H         1 <0>         0.0480
     45 H12        -2.7199   -5.9411   -5.3310 H         1 <0>         0.0858
     46 H13        -3.5007   -8.1549   -6.1996 H         1 <0>         0.1014
     47 H14        -2.9655   -8.2464   -4.5036 H         1 <0>         0.0623
     48 H15        -6.4029   -8.3349   -3.2700 H         1 <0>         0.1036
     49 H16        -4.6986   -8.3540   -2.7542 H         1 <0>         0.0630
     50 H17        -5.6629   -6.1237   -2.3602 H         1 <0>         0.0906
     51 H18        -6.1630   -6.0180   -4.0660 H         1 <0>         0.0484
     52 H19         4.3201    0.1314   -4.1853 H         1 <0>         0.2089
     53 H20         5.8688   -0.8540   -4.2828 H         1 <0>         0.3981
     54 H21         6.7384   -2.2536   -4.6110 H         1 <0>         0.4217
     55 H22         2.2046   -4.5143   -3.5633 H         1 <0>         0.4337
     56 H23         2.7226   -2.6499   -6.6068 H         1 <0>         0.1277
     57 H24         2.9072   -3.6614   -8.8426 H         1 <0>         0.1474
     58 H25         2.2406   -7.5272   -7.1593 H         1 <0>         0.1578
     59 H26         2.2832    1.1544   -3.8319 H         1 <0>         0.4493
@<TRIPOS>BOND
     1    1    2 1
     2    1   34 1
     3    1   35 1
     4    1   36 1
     5    2    3 1
     6    3    8 ar
     7    3    4 ar
     8    4    5 ar
     9    4   37 1
    10    5   21 ar
    11    5    6 ar
    12    6    7 ar
    13    6   18 ar
    14    7    8 ar
    15    7   38 1
    16    8    9 1
    17    9   10 1
    18    9   39 1
    19   10   11 1
    20   10   40 1
    21   10   41 1
    22   11   12 1
    23   11   42 1
    24   11   43 1
    25   12   17 1
    26   12   13 1
    27   13   14 1
    28   13   44 1
    29   13   45 1
    30   14   15 1
    31   14   46 1
    32   14   47 1
    33   15   16 1
    34   16   17 1
    35   16   48 1
    36   16   49 1
    37   17   50 1
    38   17   51 1
    39   18   19 ar
    40   18   25 1
    41   19   20 ar
    42   19   22 1
    43   20   21 ar
    44   20   52 1
    45   21   59 1
    46   22   23 2
    47   22   24 am
    48   24   53 1
    49   24   54 1
    50   25   26 1
    51   25   55 1
    52   26   31 ar
    53   26   27 ar
    54   27   28 ar
    55   27   56 1
    56   28   29 ar
    57   28   57 1
    58   29   30 ar
    59   29   33 1
    60   30   31 ar
    61   30   58 1
    62   31   32 1
@<TRIPOS>MOLECULE
CHEMBL479446__1
   58    61     0     0     0
SMALL
USER_CHARGES

@<TRIPOS>ATOM
      1 C1         -1.6637    1.6452    3.6264 C.3       1 <0>         0.0254
      2 O1         -1.6832    0.2253    3.7859 O.3       1 <0>        -0.3143
      3 C2         -2.4245   -0.4852    2.8965 C.ar      1 <0>         0.1192
      4 C3         -3.1057    0.1732    1.8987 C.ar      1 <0>        -0.1673
      5 C4         -3.8727   -0.5549    0.9767 C.ar      1 <0>         0.1495
      6 C5         -3.9345   -1.9648    1.0879 C.ar      1 <0>        -0.0867
      7 C6         -3.2331   -2.6185    2.1112 C.ar      1 <0>        -0.1609
      8 C7         -2.4830   -1.8834    3.0016 C.ar      1 <0>         0.2152
      9 N1         -1.7782   -2.5340    4.0201 N.pl3     1 <0>        -0.7346
     10 C8         -1.8361   -3.9935    4.1340 C.3       1 <0>         0.1258
     11 C9         -0.9843   -4.4465    5.3216 C.3       1 <0>         0.0456
     12 N2         -1.0423   -5.9099    5.4358 N.3       1 <0>        -0.5326
     13 C10        -2.3961   -6.3571    5.7940 C.3       1 <0>         0.0123
     14 C11        -2.4259   -7.8870    5.8438 C.3       1 <0>         0.0629
     15 O2         -1.4401   -8.3481    6.7716 O.3       1 <0>        -0.3842
     16 C12        -0.1097   -7.9313    6.4527 C.3       1 <0>         0.0629
     17 C13        -0.0565   -6.4018    6.4092 C.3       1 <0>         0.0186
     18 C14        -4.7095   -2.6940    0.1554 C.ar      1 <0>         0.2691
     19 C15        -5.3837   -1.9723   -0.8419 C.ar      1 <0>        -0.2109
     20 C16        -5.2654   -0.5734   -0.8763 C.ar      1 <0>         0.1524
     21 N3         -4.5413    0.0753   -0.0013 N.ar      1 <0>        -0.4663
     22 C17        -6.2052   -2.6740   -1.8409 C.2       1 <0>         0.5657
     23 O3         -6.3833   -3.8737   -1.7477 O.2       1 <0>        -0.5184
     24 N4         -6.7603   -1.9875   -2.8593 N.am      1 <0>        -0.8507
     25 N5         -4.7991   -4.0680    0.2238 N.pl3     1 <0>        -0.6799
     26 C18        -5.9390   -4.6687    0.7710 C.ar      1 <0>         0.2057
     27 C19        -7.0374   -3.8921    1.1141 C.ar      1 <0>        -0.1265
     28 C20        -8.1614   -4.4867    1.6540 C.ar      1 <0>        -0.1140
     29 C21        -8.1940   -5.8566    1.8540 C.ar      1 <0>         0.0749
     30 C22        -7.1005   -6.6346    1.5131 C.ar      1 <0>        -0.1447
     31 C23        -5.9752   -6.0451    0.9666 C.ar      1 <0>         0.0638
     32 F1         -4.9102   -6.8046    0.6287 F         1 <0>        -0.1332
     33 F2         -9.2944   -6.4348    2.3830 F         1 <0>        -0.1365
     34 H1         -1.0365    2.0892    4.3994 H         1 <0>         0.1050
     35 H2         -1.2618    1.8951    2.6445 H         1 <0>         0.0616
     36 H3         -2.6781    2.0346    3.7135 H         1 <0>         0.0615
     37 H4         -3.0503    1.2493    1.8254 H         1 <0>         0.1494
     38 H5         -3.2786   -3.6940    2.1987 H         1 <0>         0.1399
     39 H6         -1.2514   -2.0188    4.6509 H         1 <0>         0.4079
     40 H7         -2.8691   -4.3052    4.2879 H         1 <0>         0.0633
     41 H8         -1.4528   -4.4448    3.2189 H         1 <0>         0.0734
     42 H9          0.0487   -4.1347    5.1677 H         1 <0>         0.0845
     43 H10        -1.3676   -3.9951    6.2367 H         1 <0>         0.0439
     44 H11        -2.6654   -5.9559    6.7711 H         1 <0>         0.0458
     45 H12        -3.1061   -6.0034    5.0464 H         1 <0>         0.0891
     46 H13        -3.4124   -8.2217    6.1646 H         1 <0>         0.1003
     47 H14        -2.2092   -8.2876    4.8535 H         1 <0>         0.0621
     48 H15         0.5789   -8.2979    7.2139 H         1 <0>         0.1003
     49 H16         0.1743   -8.3332    5.4801 H         1 <0>         0.0617
     50 H17         0.9414   -6.0807    6.1106 H         1 <0>         0.0885
     51 H18        -0.2883   -6.0013    7.3961 H         1 <0>         0.0455
     52 H19        -5.7846   -0.0196   -1.6446 H         1 <0>         0.1616
     53 H20        -6.6182   -1.0308   -2.9336 H         1 <0>         0.4000
     54 H21        -7.3018   -2.4500   -3.5178 H         1 <0>         0.4077
     55 H22        -4.0723   -4.6185   -0.1072 H         1 <0>         0.4187
     56 H23        -7.0131   -2.8235    0.9593 H         1 <0>         0.1319
     57 H24        -9.0158   -3.8823    1.9208 H         1 <0>         0.1405
     58 H25        -7.1281   -7.7028    1.6700 H         1 <0>         0.1486
@<TRIPOS>BOND
     1    1    2 1
     2    1   34 1
     3    1   35 1
     4    1   36 1
     5    2    3 1
     6    3    8 ar
     7    3    4 ar
     8    4    5 ar
     9    4   37 1
    10    5   21 ar
    11    5    6 ar
    12    6    7 ar
    13    6   18 ar
    14    7    8 ar
    15    7   38 1
    16    8    9 1
    17    9   10 1
    18    9   39 1
    19   10   11 1
    20   10   40 1
    21   10   41 1
    22   11   12 1
    23   11   42 1
    24   11   43 1
    25   12   17 1
    26   12   13 1
    27   13   14 1
    28   13   44 1
    29   13   45 1
    30   14   15 1
    31   14   46 1
    32   14   47 1
    33   15   16 1
    34   16   17 1
    35   16   48 1
    36   16   49 1
    37   17   50 1
    38   17   51 1
    39   18   19 ar
    40   18   25 1
    41   19   20 ar
    42   19   22 1
    43   20   21 ar
    44   20   52 1
    45   22   23 2
    46   22   24 am
    47   24   53 1
    48   24   54 1
    49   25   26 1
    50   25   55 1
    51   26   31 ar
    52   26   27 ar
    53   27   28 ar
    54   27   56 1
    55   28   29 ar
    56   28   57 1
    57   29   30 ar
    58   29   33 1
    59   30   31 ar
    60   30   58 1
    61   31   32 1
@<TRIPOS>MOLECULE
CHEMBL479446__2
   60    63     0     0     0
SMALL
USER_CHARGES

@<TRIPOS>ATOM
      1 C1         -2.3300    1.6739   -3.2193 C.3       1 <0>         0.0143
      2 O1         -2.4364    0.2543   -3.3443 O.3       1 <0>        -0.2962
      3 C2         -1.2845   -0.4342   -3.5557 C.ar      1 <0>         0.1885
      4 C3         -0.0903    0.2445   -3.6334 C.ar      1 <0>        -0.2180
      5 C4          1.1028   -0.4609   -3.8511 C.ar      1 <0>         0.1655
      6 C5          1.0594   -1.8692   -3.9884 C.ar      1 <0>        -0.0737
      7 C6         -0.1672   -2.5438   -3.9059 C.ar      1 <0>        -0.1318
      8 C7         -1.3245   -1.8309   -3.6868 C.ar      1 <0>         0.2217
      9 N1         -2.5487   -2.5026   -3.5989 N.pl3     1 <0>        -0.7223
     10 C8         -2.5957   -3.9605   -3.7351 C.3       1 <0>         0.0922
     11 C9         -4.0428   -4.4389   -3.6004 C.3       1 <0>        -0.0216
     12 N2         -4.0899   -5.9008   -3.7369 N.4       1 <0>        -0.3821
     13 C10        -3.6814   -6.2793   -5.0967 C.3       1 <0>        -0.0516
     14 C11        -3.7311   -7.8028   -5.2363 C.3       1 <0>         0.0358
     15 O2         -5.0530   -8.2607   -4.9383 O.3       1 <0>        -0.3520
     16 C12        -5.5058   -7.8955   -3.6316 C.3       1 <0>         0.0349
     17 C13        -5.4594   -6.3721   -3.4890 C.3       1 <0>        -0.0430
     18 C14         2.2657   -2.5754   -4.2078 C.ar      1 <0>         0.3739
     19 C15         3.4550   -1.8336   -4.2785 C.ar      1 <0>        -0.2038
     20 C16         3.4039   -0.4379   -4.1309 C.ar      1 <0>         0.2266
     21 N3          2.2741    0.1893   -3.9285 N.ar      1 <0>        -0.4531
     22 C17         4.7417   -2.5109   -4.5043 C.2       1 <0>         0.5651
     23 O3          4.7686   -3.7061   -4.7292 O.2       1 <0>        -0.4879
     24 N4          5.8903   -1.8071   -4.4621 N.am      1 <0>        -0.8391
     25 N5          2.2725   -3.9469   -4.3471 N.pl3     1 <0>        -0.6894
     26 C18         2.3777   -4.5207   -5.6196 C.ar      1 <0>         0.1688
     27 C19         2.6174   -3.7181   -6.7267 C.ar      1 <0>        -0.1210
     28 C20         2.7207   -4.2861   -7.9816 C.ar      1 <0>        -0.1141
     29 C21         2.5851   -5.6554   -8.1372 C.ar      1 <0>         0.1068
     30 C22         2.3460   -6.4595   -7.0356 C.ar      1 <0>        -0.1464
     31 C23         2.2478   -5.8965   -5.7762 C.ar      1 <0>         0.0845
     32 F1          2.0201   -6.6813   -4.7004 F         1 <0>        -0.1296
     33 F2          2.6859   -6.2077   -9.3660 F         1 <0>        -0.1224
     34 H1         -1.6844    1.9169   -2.3754 H         1 <0>         0.0735
     35 H2         -1.9047    2.0882   -4.1333 H         1 <0>         0.0737
     36 H3         -3.3199    2.0992   -3.0538 H         1 <0>         0.1248
     37 H4         -0.0713    1.3191   -3.5273 H         1 <0>         0.1719
     38 H5         -0.2035   -3.6181   -4.0105 H         1 <0>         0.1603
     39 H6         -3.3663   -2.0030   -3.4478 H         1 <0>         0.4240
     40 H7         -2.2079   -4.2468   -4.7127 H         1 <0>         0.0912
     41 H8         -1.9877   -4.4181   -2.9547 H         1 <0>         0.0919
     42 H9         -4.4306   -4.1526   -2.6228 H         1 <0>         0.1445
     43 H10        -4.6509   -3.9813   -4.3807 H         1 <0>         0.1427
     44 H11        -4.3593   -5.8256   -5.8196 H         1 <0>         0.1437
     45 H12        -2.6655   -5.9302   -5.2816 H         1 <0>         0.1405
     46 H13        -3.4700   -8.0835   -6.2567 H         1 <0>         0.1450
     47 H14        -3.0238   -8.2553   -4.5413 H         1 <0>         0.0837
     48 H15        -6.5292   -8.2432   -3.4906 H         1 <0>         0.1468
     49 H16        -4.8592   -8.3511   -2.8817 H         1 <0>         0.0842
     50 H17        -5.7634   -6.0919   -2.4805 H         1 <0>         0.1464
     51 H18        -6.1367   -5.9184   -4.2125 H         1 <0>         0.1429
     52 H19         4.3201    0.1314   -4.1853 H         1 <0>         0.2142
     53 H20         5.8688   -0.8540   -4.2828 H         1 <0>         0.3995
     54 H21         6.7384   -2.2536   -4.6110 H         1 <0>         0.4250
     55 H22         2.2046   -4.5143   -3.5633 H         1 <0>         0.4330
     56 H23         2.7226   -2.6499   -6.6068 H         1 <0>         0.1285
     57 H24         2.9072   -3.6614   -8.8426 H         1 <0>         0.1505
     58 H25         2.2406   -7.5272   -7.1593 H         1 <0>         0.1587
     59 H26         2.2832    1.1544   -3.8319 H         1 <0>         0.4536
     60 H27        -3.4629   -6.3216   -3.0677 H         1 <0>         0.4258
@<TRIPOS>BOND
     1    1    2 1
     2    1   34 1
     3    1   35 1
     4    1   36 1
     5    2    3 1
     6    3    8 ar
     7    3    4 ar
     8    4    5 ar
     9    4   37 1
    10    5   21 ar
    11    5    6 ar
    12    6    7 ar
    13    6   18 ar
    14    7    8 ar
    15    7   38 1
    16    8    9 1
    17    9   10 1
    18    9   39 1
    19   10   11 1
    20   10   40 1
    21   10   41 1
    22   11   12 1
    23   11   42 1
    24   11   43 1
    25   12   17 1
    26   12   13 1
    27   12   60 1
    28   13   14 1
    29   13   44 1
    30   13   45 1
    31   14   15 1
    32   14   46 1
    33   14   47 1
    34   15   16 1
    35   16   17 1
    36   16   48 1
    37   16   49 1
    38   17   50 1
    39   17   51 1
    40   18   19 ar
    41   18   25 1
    42   19   20 ar
    43   19   22 1
    44   20   21 ar
    45   20   52 1
    46   21   59 1
    47   22   23 2
    48   22   24 am
    49   24   53 1
    50   24   54 1
    51   25   26 1
    52   25   55 1
    53   26   31 ar
    54   26   27 ar
    55   27   28 ar
    56   27   56 1
    57   28   29 ar
    58   28   57 1
    59   29   30 ar
    60   29   33 1
    61   30   31 ar
    62   30   58 1
    63   31   32 1
@<TRIPOS>MOLECULE
CHEMBL448117
   73    78     0     0     0
SMALL
USER_CHARGES

@<TRIPOS>ATOM
      1 C1          0.8925    0.3790    0.3562 C.3       1 <0>         0.0005
      2 O1          0.5627   -0.9825    0.0741 O.3       1 <0>        -0.1464
      3 N1         -0.8239   -1.2635    0.1342 N.am      1 <0>        -0.5868
      4 C2         -1.2698   -2.5114   -0.1114 C.2       1 <0>         0.5961
      5 O2         -0.4921   -3.3758   -0.4688 O.2       1 <0>        -0.5318
      6 C3         -2.6973   -2.8282    0.0526 C.2       1 <0>        -0.3108
      7 C4         -3.1486   -4.1220   -0.0917 C.2       1 <0>         0.2597
      8 N2         -4.4447   -4.4506    0.0500 N.pl3     1 <0>        -0.4218
      9 C5         -5.4151   -3.5264    0.3483 C.ar      1 <0>         0.4682
     10 C6         -5.0744   -2.1693    0.5202 C.ar      1 <0>        -0.3301
     11 C7         -3.6671   -1.7679    0.3800 C.2       1 <0>         0.4545
     12 O3         -3.3186   -0.6088    0.5231 O.2       1 <0>        -0.4800
     13 C8         -6.0794   -1.2498    0.8238 C.ar      1 <0>         0.2846
     14 N3         -7.3205   -1.6893    0.9395 N.ar      1 <0>        -0.5711
     15 C9         -7.6101   -2.9748    0.7716 C.ar      1 <0>         0.6095
     16 N4         -6.6882   -3.8805    0.4824 N.ar      1 <0>        -0.5800
     17 N5         -8.9233   -3.3824    0.9034 N.pl3     1 <0>        -0.6319
     18 C10        -9.9338   -2.4348    1.0931 C.ar      1 <0>         0.1817
     19 C11        -9.8859   -1.2217    0.4183 C.ar      1 <0>        -0.1037
     20 C12       -10.8855   -0.2879    0.6079 C.ar      1 <0>        -0.0864
     21 C13       -11.9331   -0.5593    1.4689 C.ar      1 <0>        -0.1244
     22 C14       -11.9838   -1.7661    2.1422 C.ar      1 <0>        -0.0849
     23 C15       -10.9906   -2.7068    1.9524 C.ar      1 <0>        -0.1386
     24 C16       -13.0216    0.4625    1.6741 C.3       1 <0>        -0.0997
     25 C17       -14.1371    0.2315    0.6527 C.3       1 <0>        -0.0084
     26 N6        -15.1982    1.2275    0.8527 N.4       1 <0>        -0.3871
     27 C18       -16.3188    0.9432   -0.0572 C.3       1 <0>        -0.0221
     28 C19       -17.5073    1.8234    0.3343 C.3       1 <0>         0.0826
     29 N7        -17.0805    3.2165    0.4403 N.am      1 <0>        -0.7238
     30 C20       -15.7954    3.5699    0.5563 C.2       1 <0>         0.5036
     31 O4        -15.5231    4.7469    0.6635 O.2       1 <0>        -0.4879
     32 C21       -14.6760    2.5680    0.5594 C.3       1 <0>        -0.0208
     33 C22        -4.8199   -5.7894   -0.1138 C.ar      1 <0>         0.0881
     34 C23        -4.4373   -6.7399    0.8239 C.ar      1 <0>        -0.0976
     35 C24        -4.8103   -8.0577    0.6578 C.ar      1 <0>        -0.0939
     36 C25        -5.5651   -8.4378   -0.4404 C.ar      1 <0>        -0.0716
     37 C26        -5.9475   -7.4938   -1.3757 C.ar      1 <0>        -0.0865
     38 C27        -5.5801   -6.1700   -1.2103 C.ar      1 <0>        -0.0678
     39 C28        -6.7575   -8.1564   -2.4696 C.3       1 <0>        -0.0824
     40 C29        -6.4595   -9.6648   -2.3356 C.3       1 <0>        -0.1218
     41 C30        -6.0925   -9.7988   -0.8425 C.3       1 <0>        -0.0882
     42 H1          1.9723    0.5125    0.2898 H         1 <0>         0.1146
     43 H2          0.4009    1.0294   -0.3673 H         1 <0>         0.0568
     44 H3          0.5560    0.6337    1.3612 H         1 <0>         0.0566
     45 H4         -1.4527   -0.5579    0.3522 H         1 <0>         0.4191
     46 H5         -2.4366   -4.8991   -0.3272 H         1 <0>         0.1944
     47 H6         -5.8483   -0.2038    0.9615 H         1 <0>         0.1951
     48 H7         -9.1445   -4.3260    0.8644 H         1 <0>         0.4296
     49 H8         -9.0676   -1.0088   -0.2537 H         1 <0>         0.1360
     50 H9        -10.8489    0.6556    0.0836 H         1 <0>         0.1285
     51 H10       -12.8033   -1.9750    2.8139 H         1 <0>         0.1294
     52 H11       -11.0333   -3.6510    2.4749 H         1 <0>         0.1324
     53 H12       -13.4259    0.3653    2.6817 H         1 <0>         0.0971
     54 H13       -12.6101    1.4632    1.5426 H         1 <0>         0.0960
     55 H14       -13.7329    0.3286   -0.3550 H         1 <0>         0.1360
     56 H15       -14.5486   -0.7692    0.7841 H         1 <0>         0.1396
     57 H16       -16.0221    1.1646   -1.0824 H         1 <0>         0.1414
     58 H17       -16.5990   -0.1069    0.0254 H         1 <0>         0.1554
     59 H18       -18.2852    1.7398   -0.4246 H         1 <0>         0.1286
     60 H19       -17.9027    1.4918    1.2943 H         1 <0>         0.1004
     61 H20       -17.7556    3.9128    0.4259 H         1 <0>         0.4272
     62 H21       -13.9451    2.8452    1.3191 H         1 <0>         0.1680
     63 H22       -14.1936    2.5620   -0.4180 H         1 <0>         0.1647
     64 H23        -3.8486   -6.4480    1.6811 H         1 <0>         0.1342
     65 H24        -4.5123   -8.7966    1.3869 H         1 <0>         0.1351
     66 H25        -5.8823   -5.4320   -1.9385 H         1 <0>         0.1236
     67 H26        -7.8204   -7.9662   -2.3212 H         1 <0>         0.0828
     68 H27        -6.4405   -7.7936   -3.4474 H         1 <0>         0.0789
     69 H28        -7.3436  -10.2569   -2.5720 H         1 <0>         0.0814
     70 H29        -5.6194   -9.9515   -2.9683 H         1 <0>         0.0771
     71 H30        -5.3215  -10.5577   -0.7091 H         1 <0>         0.0829
     72 H31        -6.9768  -10.0499   -0.2568 H         1 <0>         0.0862
     73 H32       -15.5194    1.1916    1.8085 H         1 <0>         0.4300
@<TRIPOS>BOND
     1    1    2 1
     2    1   42 1
     3    1   43 1
     4    1   44 1
     5    2    3 1
     6    3    4 am
     7    3   45 1
     8    4    5 2
     9    4    6 1
    10    6   11 1
    11    6    7 2
    12    7    8 1
    13    7   46 1
    14    8    9 1
    15    8   33 1
    16    9   16 ar
    17    9   10 ar
    18   10   11 1
    19   10   13 ar
    20   11   12 2
    21   13   14 ar
    22   13   47 1
    23   14   15 ar
    24   15   16 ar
    25   15   17 1
    26   17   18 1
    27   17   48 1
    28   18   23 ar
    29   18   19 ar
    30   19   20 ar
    31   19   49 1
    32   20   21 ar
    33   20   50 1
    34   21   22 ar
    35   21   24 1
    36   22   23 ar
    37   22   51 1
    38   23   52 1
    39   24   25 1
    40   24   53 1
    41   24   54 1
    42   25   26 1
    43   25   55 1
    44   25   56 1
    45   26   32 1
    46   26   27 1
    47   26   73 1
    48   27   28 1
    49   27   57 1
    50   27   58 1
    51   28   29 1
    52   28   59 1
    53   28   60 1
    54   29   30 am
    55   29   61 1
    56   30   31 2
    57   30   32 1
    58   32   62 1
    59   32   63 1
    60   33   38 ar
    61   33   34 ar
    62   34   35 ar
    63   34   64 1
    64   35   36 ar
    65   35   65 1
    66   36   41 1
    67   36   37 ar
    68   37   38 ar
    69   37   39 1
    70   38   66 1
    71   39   40 1
    72   39   67 1
    73   39   68 1
    74   40   41 1
    75   40   69 1
    76   40   70 1
    77   41   71 1
    78   41   72 1
@<TRIPOS>MOLECULE
CHEMBL448117__1
   72    77     0     0     0
SMALL
USER_CHARGES

@<TRIPOS>ATOM
      1 C1         -0.7556    0.3553    0.6036 C.3       1 <0>         0.0008
      2 O1         -0.3253   -0.9965    0.4318 O.3       1 <0>        -0.1485
      3 N1          0.3200   -1.2428   -0.8044 N.am      1 <0>        -0.5868
      4 C2          0.7750   -2.4783   -1.0926 C.2       1 <0>         0.5982
      5 O2          0.7093   -3.3607   -0.2579 O.2       1 <0>        -0.5360
      6 C3          1.3512   -2.7597   -2.4169 C.2       1 <0>        -0.3157
      7 C4          1.7219   -4.0412   -2.7614 C.2       1 <0>         0.2613
      8 N2          2.2520   -4.3377   -3.9610 N.pl3     1 <0>        -0.4233
      9 C5          2.4641   -3.3905   -4.9318 C.ar      1 <0>         0.4661
     10 C6          2.1239   -2.0430   -4.6956 C.ar      1 <0>        -0.3372
     11 C7          1.5358   -1.6765   -3.3990 C.2       1 <0>         0.4560
     12 O3          1.2196   -0.5271   -3.1457 O.2       1 <0>        -0.4839
     13 C8          2.3488   -1.0996   -5.6992 C.ar      1 <0>         0.2851
     14 N3          2.8757   -1.5082   -6.8404 N.ar      1 <0>        -0.5649
     15 C9          3.1858   -2.7854   -7.0330 C.ar      1 <0>         0.6130
     16 N4          2.9897   -3.7130   -6.1082 N.ar      1 <0>        -0.5852
     17 N5          3.7343   -3.1604   -8.2440 N.pl3     1 <0>        -0.6254
     18 C10         4.0602   -2.1884   -9.1947 C.ar      1 <0>         0.1510
     19 C11         4.6018   -0.9745   -8.7916 C.ar      1 <0>        -0.1013
     20 C12         4.9225   -0.0166   -9.7333 C.ar      1 <0>        -0.0962
     21 C13         4.7047   -0.2647  -11.0762 C.ar      1 <0>        -0.0915
     22 C14         4.1656   -1.4721  -11.4808 C.ar      1 <0>        -0.0935
     23 C15         3.8484   -2.4368  -10.5448 C.ar      1 <0>        -0.1358
     24 C16         5.0550    0.7834  -12.1008 C.3       1 <0>        -0.0786
     25 C17         6.5006    0.5841  -12.5606 C.3       1 <0>         0.0597
     26 N6          6.8421    1.6057  -13.5594 N.3       1 <0>        -0.5324
     27 C18         8.1461    1.3215  -14.1800 C.3       1 <0>         0.0322
     28 C19         8.3114    2.2182  -15.4084 C.3       1 <0>         0.1146
     29 N7          8.0258    3.6062  -15.0568 N.am      1 <0>        -0.7200
     30 C20         7.3481    3.9529  -13.9575 C.2       1 <0>         0.5244
     31 O4          7.1281    5.1286  -13.7572 O.2       1 <0>        -0.5504
     32 C21         6.8478    2.9468  -12.9599 C.3       1 <0>         0.0346
     33 C22         2.6022   -5.6661   -4.2307 C.ar      1 <0>         0.0921
     34 C23         1.6137   -6.6292   -4.3872 C.ar      1 <0>        -0.0986
     35 C24         1.9645   -7.9366   -4.6535 C.ar      1 <0>        -0.0948
     36 C25         3.2986   -8.2938   -4.7656 C.ar      1 <0>        -0.0744
     37 C26         4.2851   -7.3372   -4.6102 C.ar      1 <0>        -0.0860
     38 C27         3.9375   -6.0236   -4.3483 C.ar      1 <0>        -0.0672
     39 C28         5.6475   -7.9755   -4.7778 C.3       1 <0>        -0.0831
     40 C29         5.4061   -9.4913   -4.6169 C.3       1 <0>        -0.1212
     41 C30         3.9317   -9.6397   -5.0484 C.3       1 <0>        -0.0870
     42 H1          0.1066    1.0203    0.5526 H         1 <0>         0.0567
     43 H2         -1.4617    0.6148   -0.1851 H         1 <0>         0.0565
     44 H3         -1.2398    0.4619    1.5743 H         1 <0>         0.1128
     45 H4          0.4345   -0.5224   -1.4437 H         1 <0>         0.4200
     46 H5          1.5821   -4.8352   -2.0427 H         1 <0>         0.1921
     47 H6          2.0979   -0.0602   -5.5471 H         1 <0>         0.1936
     48 H7          3.8933   -4.0981   -8.4348 H         1 <0>         0.4264
     49 H8          4.7715   -0.7799   -7.7430 H         1 <0>         0.1291
     50 H9          5.3437    0.9275   -9.4206 H         1 <0>         0.1254
     51 H10         3.9967   -1.6627  -12.5304 H         1 <0>         0.1287
     52 H11         3.4319   -3.3815  -10.8619 H         1 <0>         0.1259
     53 H12         4.3859    0.6929  -12.9565 H         1 <0>         0.0846
     54 H13         4.9476    1.7739  -11.6588 H         1 <0>         0.0745
     55 H14         7.1697    0.6745  -11.7049 H         1 <0>         0.0420
     56 H15         6.6080   -0.4065  -13.0026 H         1 <0>         0.0838
     57 H16         8.9435    1.5287  -13.4663 H         1 <0>         0.0478
     58 H17         8.1865    0.2753  -14.4830 H         1 <0>         0.0990
     59 H18         9.3343    2.1416  -15.7771 H         1 <0>         0.0827
     60 H19         7.6225    1.8936  -16.1883 H         1 <0>         0.0766
     61 H20         8.3420    4.3082  -15.6469 H         1 <0>         0.4023
     62 H21         5.8350    3.2115  -12.6559 H         1 <0>         0.1174
     63 H22         7.4987    2.9496  -12.0857 H         1 <0>         0.0742
     64 H23         0.5726   -6.3552   -4.3003 H         1 <0>         0.1336
     65 H24         1.1956   -8.6853   -4.7748 H         1 <0>         0.1337
     66 H25         4.7078   -5.2757   -4.2311 H         1 <0>         0.1243
     67 H26         6.0472   -7.7592   -5.7686 H         1 <0>         0.0840
     68 H27         6.3303   -7.6174   -4.0073 H         1 <0>         0.0785
     69 H28         6.0618  -10.0602   -5.2761 H         1 <0>         0.0808
     70 H29         5.5386   -9.7968   -3.5790 H         1 <0>         0.0758
     71 H30         3.4427  -10.4181   -4.4627 H         1 <0>         0.0811
     72 H31         3.8702   -9.8705   -6.1119 H         1 <0>         0.0859
@<TRIPOS>BOND
     1    1    2 1
     2    1   42 1
     3    1   43 1
     4    1   44 1
     5    2    3 1
     6    3    4 am
     7    3   45 1
     8    4    5 2
     9    4    6 1
    10    6   11 1
    11    6    7 2
    12    7    8 1
    13    7   46 1
    14    8    9 1
    15    8   33 1
    16    9   16 ar
    17    9   10 ar
    18   10   11 1
    19   10   13 ar
    20   11   12 2
    21   13   14 ar
    22   13   47 1
    23   14   15 ar
    24   15   16 ar
    25   15   17 1
    26   17   18 1
    27   17   48 1
    28   18   23 ar
    29   18   19 ar
    30   19   20 ar
    31   19   49 1
    32   20   21 ar
    33   20   50 1
    34   21   22 ar
    35   21   24 1
    36   22   23 ar
    37   22   51 1
    38   23   52 1
    39   24   25 1
    40   24   53 1
    41   24   54 1
    42   25   26 1
    43   25   55 1
    44   25   56 1
    45   26   32 1
    46   26   27 1
    47   27   28 1
    48   27   57 1
    49   27   58 1
    50   28   29 1
    51   28   59 1
    52   28   60 1
    53   29   30 am
    54   29   61 1
    55   30   31 2
    56   30   32 1
    57   32   62 1
    58   32   63 1
    59   33   38 ar
    60   33   34 ar
    61   34   35 ar
    62   34   64 1
    63   35   36 ar
    64   35   65 1
    65   36   41 1
    66   36   37 ar
    67   37   38 ar
    68   37   39 1
    69   38   66 1
    70   39   40 1
    71   39   67 1
    72   39   68 1
    73   40   41 1
    74   40   69 1
    75   40   70 1
    76   41   71 1
    77   41   72 1
@<TRIPOS>MOLECULE
CHEMBL444454
   68    72     0     0     0
SMALL
USER_CHARGES

@<TRIPOS>ATOM
      1 C1          2.7078   -7.5257    2.2538 C.3       1 <0>        -0.1137
      2 C2          1.7346   -6.5602    1.6278 C.2       1 <0>         0.4793
      3 O1          1.0557   -5.6891    2.4027 O.3       1 <0>        -0.7292
      4 N1          1.5506   -6.5667    0.3506 N.2       1 <0>        -1.0713
      5 S1          0.4812   -5.5058   -0.3373 S.o2      1 <0>         2.5658
      6 O2         -0.7854   -5.8738    0.1913 O.2       1 <0>        -1.0045
      7 O3          1.0285   -4.2202   -0.0784 O.2       1 <0>        -1.0035
      8 C3          0.5452   -5.8658   -2.1141 C.3       1 <0>        -0.6055
      9 C4         -0.4143   -4.9346   -2.8580 C.3       1 <0>        -0.0740
     10 C5         -0.3611   -5.2336   -4.3341 C.ar      1 <0>        -0.0711
     11 C6          0.5475   -4.5721   -5.1397 C.ar      1 <0>        -0.0970
     12 C7          0.5991   -4.8441   -6.4927 C.ar      1 <0>        -0.1033
     13 C8         -0.2629   -5.7833   -7.0441 C.ar      1 <0>         0.1375
     14 C9         -1.1744   -6.4460   -6.2321 C.ar      1 <0>        -0.1357
     15 C10        -1.2172   -6.1731   -4.8789 C.ar      1 <0>        -0.0965
     16 N2         -0.2136   -6.0608   -8.4135 N.pl3     1 <0>        -0.6186
     17 C11         0.9930   -6.0153   -9.0844 C.ar      1 <0>         0.6137
     18 N3          2.1050   -5.8124   -8.3862 N.ar      1 <0>        -0.5603
     19 C12         3.2836   -5.7612   -8.9816 C.ar      1 <0>         0.2859
     20 C13         3.3361   -5.9255  -10.3669 C.ar      1 <0>        -0.3400
     21 C14         4.6042   -5.8834  -11.1095 C.2       1 <0>         0.4560
     22 O4          5.6678   -5.7023  -10.5428 O.2       1 <0>        -0.4840
     23 C15         4.5322   -6.0705  -12.5695 C.2       1 <0>        -0.3173
     24 C16         3.3015   -6.2719  -13.1552 C.2       1 <0>         0.2595
     25 N4          2.1629   -6.3039  -12.4408 N.pl3     1 <0>        -0.4220
     26 C17         2.1382   -6.1390  -11.0782 C.ar      1 <0>         0.4635
     27 N5          0.9977   -6.1810  -10.3981 N.ar      1 <0>        -0.5885
     28 C18         0.9534   -6.5138  -13.1139 C.ar      1 <0>         0.0955
     29 C19         0.7558   -7.6782  -13.8449 C.ar      1 <0>        -0.1051
     30 C20        -0.4383   -7.8801  -14.5058 C.ar      1 <0>        -0.0942
     31 C21        -1.4417   -6.9263  -14.4442 C.ar      1 <0>        -0.0790
     32 C22        -1.2479   -5.7660  -13.7173 C.ar      1 <0>        -0.0851
     33 C23        -0.0540   -5.5620  -13.0482 C.ar      1 <0>        -0.0642
     34 C24        -2.4820   -4.8939  -13.8073 C.3       1 <0>        -0.0832
     35 C25        -3.2747   -5.4389  -15.0143 C.3       1 <0>        -0.1208
     36 C26        -2.8194   -6.9125  -15.0717 C.3       1 <0>        -0.0857
     37 C27         5.7545   -6.0421  -13.3883 C.2       1 <0>         0.5999
     38 O5          5.6754   -6.0926  -14.6011 O.2       1 <0>        -0.5388
     39 N6          6.9616   -5.9600  -12.7945 N.am      1 <0>        -0.5859
     40 O6          8.1297   -5.8165  -13.5820 O.3       1 <0>        -0.1495
     41 C28         9.3375   -5.7422  -12.8219 C.3       1 <0>         0.0008
     42 H1          2.1875   -8.4466    2.5169 H         1 <0>         0.0704
     43 H2          3.5052   -7.7487    1.5449 H         1 <0>         0.0685
     44 H3          3.1345   -7.0800    3.1523 H         1 <0>         0.0644
     45 H4          1.5599   -5.7096   -2.4802 H         1 <0>         0.1238
     46 H5          0.2524   -6.9016   -2.2858 H         1 <0>         0.1228
     47 H6         -1.4290   -5.0908   -2.4919 H         1 <0>         0.0849
     48 H7         -0.1215   -3.8988   -2.6863 H         1 <0>         0.0854
     49 H8          1.2173   -3.8416   -4.7104 H         1 <0>         0.1301
     50 H9          1.3088   -4.3268   -7.1214 H         1 <0>         0.1339
     51 H10        -1.8462   -7.1766   -6.6577 H         1 <0>         0.1247
     52 H11        -1.9228   -6.6910   -4.2462 H         1 <0>         0.1308
     53 H12        -1.0267   -6.2851   -8.8925 H         1 <0>         0.4250
     54 H13         4.1849   -5.5957   -8.4101 H         1 <0>         0.1941
     55 H14         3.2495   -6.4085  -14.2253 H         1 <0>         0.1908
     56 H15         1.5352   -8.4241  -13.8956 H         1 <0>         0.1342
     57 H16        -0.5916   -8.7856  -15.0740 H         1 <0>         0.1328
     58 H17         0.0956   -4.6579  -12.4768 H         1 <0>         0.1253
     59 H18        -3.0737   -4.9806  -12.8960 H         1 <0>         0.0847
     60 H19        -2.1994   -3.8552  -13.9783 H         1 <0>         0.0779
     61 H20        -4.3478   -5.3716  -14.8353 H         1 <0>         0.0801
     62 H21        -2.9994   -4.9125  -15.9282 H         1 <0>         0.0747
     63 H22        -2.7673   -7.2522  -16.1061 H         1 <0>         0.0796
     64 H23        -3.5017   -7.5416  -14.5000 H         1 <0>         0.0852
     65 H24         7.0302   -5.9994  -11.8277 H         1 <0>         0.4205
     66 H25         9.2933   -4.8832  -12.1525 H         1 <0>         0.0575
     67 H26         9.4547   -6.6538  -12.2359 H         1 <0>         0.0563
     68 H27        10.1859   -5.6331  -13.4976 H         1 <0>         0.1116
@<TRIPOS>BOND
     1    1    2 1
     2    1   42 1
     3    1   43 1
     4    1   44 1
     5    2    3 1
     6    2    4 2
     7    4    5 1
     8    5    6 2
     9    5    7 2
    10    5    8 1
    11    8    9 1
    12    8   45 1
    13    8   46 1
    14    9   10 1
    15    9   47 1
    16    9   48 1
    17   10   15 ar
    18   10   11 ar
    19   11   12 ar
    20   11   49 1
    21   12   13 ar
    22   12   50 1
    23   13   14 ar
    24   13   16 1
    25   14   15 ar
    26   14   51 1
    27   15   52 1
    28   16   17 1
    29   16   53 1
    30   17   27 ar
    31   17   18 ar
    32   18   19 ar
    33   19   20 ar
    34   19   54 1
    35   20   26 ar
    36   20   21 1
    37   21   22 2
    38   21   23 1
    39   23   24 2
    40   23   37 1
    41   24   25 1
    42   24   55 1
    43   25   26 1
    44   25   28 1
    45   26   27 ar
    46   28   33 ar
    47   28   29 ar
    48   29   30 ar
    49   29   56 1
    50   30   31 ar
    51   30   57 1
    52   31   36 1
    53   31   32 ar
    54   32   33 ar
    55   32   34 1
    56   33   58 1
    57   34   35 1
    58   34   59 1
    59   34   60 1
    60   35   36 1
    61   35   61 1
    62   35   62 1
    63   36   63 1
    64   36   64 1
    65   37   38 2
    66   37   39 am
    67   39   40 1
    68   39   65 1
    69   40   41 1
    70   41   66 1
    71   41   67 1
    72   41   68 1
@<TRIPOS>MOLECULE
CHEMBL444454__1
   69    73     0     0     0
SMALL
USER_CHARGES

@<TRIPOS>ATOM
      1 C1          2.7078   -7.5257    2.2538 C.3       1 <0>        -0.1485
      2 C2          1.7346   -6.5602    1.6278 C.2       1 <0>         0.4955
      3 O1          1.0557   -5.6891    2.4027 O.3       1 <0>        -0.5055
      4 N1          1.5506   -6.5667    0.3506 N.2       1 <0>        -0.9532
      5 S1          0.4812   -5.5058   -0.3373 S.o2      1 <0>         2.5470
      6 O2         -0.7854   -5.8738    0.1913 O.2       1 <0>        -0.9685
      7 O3          1.0285   -4.2202   -0.0784 O.2       1 <0>        -0.9674
      8 C3          0.5452   -5.8658   -2.1141 C.3       1 <0>        -0.5879
      9 C4         -0.4143   -4.9346   -2.8580 C.3       1 <0>        -0.0719
     10 C5         -0.3611   -5.2336   -4.3341 C.ar      1 <0>        -0.0881
     11 C6          0.5475   -4.5721   -5.1397 C.ar      1 <0>        -0.0936
     12 C7          0.5991   -4.8441   -6.4927 C.ar      1 <0>        -0.1046
     13 C8         -0.2629   -5.7833   -7.0441 C.ar      1 <0>         0.1533
     14 C9         -1.1744   -6.4460   -6.2321 C.ar      1 <0>        -0.1374
     15 C10        -1.2172   -6.1731   -4.8789 C.ar      1 <0>        -0.0930
     16 N2         -0.2136   -6.0608   -8.4135 N.pl3     1 <0>        -0.6229
     17 C11         0.9930   -6.0153   -9.0844 C.ar      1 <0>         0.6125
     18 N3          2.1050   -5.8124   -8.3862 N.ar      1 <0>        -0.5650
     19 C12         3.2836   -5.7612   -8.9816 C.ar      1 <0>         0.2849
     20 C13         3.3361   -5.9255  -10.3669 C.ar      1 <0>        -0.3365
     21 C14         4.6042   -5.8834  -11.1095 C.2       1 <0>         0.4557
     22 O4          5.6678   -5.7023  -10.5428 O.2       1 <0>        -0.4830
     23 C15         4.5322   -6.0705  -12.5695 C.2       1 <0>        -0.3150
     24 C16         3.3015   -6.2719  -13.1552 C.2       1 <0>         0.2592
     25 N4          2.1629   -6.3039  -12.4408 N.pl3     1 <0>        -0.4209
     26 C17         2.1383   -6.1390  -11.0782 C.ar      1 <0>         0.4653
     27 N5          0.9977   -6.1810  -10.3981 N.ar      1 <0>        -0.5852
     28 C18         0.9534   -6.5138  -13.1139 C.ar      1 <0>         0.0923
     29 C19         0.7558   -7.6782  -13.8449 C.ar      1 <0>        -0.1043
     30 C20        -0.4383   -7.8801  -14.5058 C.ar      1 <0>        -0.0935
     31 C21        -1.4417   -6.9263  -14.4442 C.ar      1 <0>        -0.0767
     32 C22        -1.2479   -5.7660  -13.7173 C.ar      1 <0>        -0.0852
     33 C23        -0.0540   -5.5620  -13.0482 C.ar      1 <0>        -0.0646
     34 C24        -2.4820   -4.8939  -13.8073 C.3       1 <0>        -0.0829
     35 C25        -3.2747   -5.4389  -15.0143 C.3       1 <0>        -0.1212
     36 C26        -2.8194   -6.9125  -15.0717 C.3       1 <0>        -0.0866
     37 C27         5.7545   -6.0421  -13.3883 C.2       1 <0>         0.5985
     38 O5          5.6754   -6.0926  -14.6011 O.2       1 <0>        -0.5355
     39 N6          6.9616   -5.9600  -12.7945 N.am      1 <0>        -0.5862
     40 O6          8.1297   -5.8165  -13.5820 O.3       1 <0>        -0.1480
     41 C28         9.3375   -5.7422  -12.8219 C.3       1 <0>         0.0008
     42 H1          2.1875   -8.4466    2.5169 H         1 <0>         0.1130
     43 H2          3.5052   -7.7487    1.5449 H         1 <0>         0.1128
     44 H3          3.1345   -7.0800    3.1523 H         1 <0>         0.0970
     45 H4          1.5599   -5.7096   -2.4802 H         1 <0>         0.1381
     46 H5          0.2524   -6.9016   -2.2858 H         1 <0>         0.1371
     47 H6         -1.4290   -5.0908   -2.4919 H         1 <0>         0.0898
     48 H7         -0.1215   -3.8988   -2.6863 H         1 <0>         0.0902
     49 H8          1.2173   -3.8416   -4.7104 H         1 <0>         0.1296
     50 H9          1.3088   -4.3268   -7.1214 H         1 <0>         0.1371
     51 H10        -1.8462   -7.1766   -6.6577 H         1 <0>         0.1279
     52 H11        -1.9228   -6.6910   -4.2462 H         1 <0>         0.1303
     53 H12        -1.0267   -6.2851   -8.8925 H         1 <0>         0.4270
     54 H13         4.1849   -5.5957   -8.4101 H         1 <0>         0.1941
     55 H14         3.2495   -6.4085  -14.2253 H         1 <0>         0.1924
     56 H15         1.5352   -8.4241  -13.8956 H         1 <0>         0.1345
     57 H16        -0.5916   -8.7856  -15.0740 H         1 <0>         0.1339
     58 H17         0.0956   -4.6579  -12.4768 H         1 <0>         0.1246
     59 H18        -3.0737   -4.9806  -12.8960 H         1 <0>         0.0841
     60 H19        -2.1994   -3.8552  -13.9783 H         1 <0>         0.0782
     61 H20        -4.3478   -5.3716  -14.8353 H         1 <0>         0.0807
     62 H21        -2.9994   -4.9125  -15.9282 H         1 <0>         0.0756
     63 H22        -2.7673   -7.2522  -16.1061 H         1 <0>         0.0809
     64 H23        -3.5017   -7.5416  -14.5000 H         1 <0>         0.0856
     65 H24         7.0302   -5.9994  -11.8277 H         1 <0>         0.4196
     66 H25         9.2933   -4.8832  -12.1525 H         1 <0>         0.0572
     67 H26         9.4547   -6.6538  -12.2359 H         1 <0>         0.0561
     68 H27        10.1859   -5.6331  -13.4976 H         1 <0>         0.1129
     69 H28         1.2598   -5.7593    3.3453 H         1 <0>         0.4276
@<TRIPOS>BOND
     1    1    2 1
     2    1   42 1
     3    1   43 1
     4    1   44 1
     5    2    3 1
     6    2    4 2
     7    3   69 1
     8    4    5 1
     9    5    6 2
    10    5    7 2
    11    5    8 1
    12    8    9 1
    13    8   45 1
    14    8   46 1
    15    9   10 1
    16    9   47 1
    17    9   48 1
    18   10   15 ar
    19   10   11 ar
    20   11   12 ar
    21   11   49 1
    22   12   13 ar
    23   12   50 1
    24   13   14 ar
    25   13   16 1
    26   14   15 ar
    27   14   51 1
    28   15   52 1
    29   16   17 1
    30   16   53 1
    31   17   27 ar
    32   17   18 ar
    33   18   19 ar
    34   19   20 ar
    35   19   54 1
    36   20   26 ar
    37   20   21 1
    38   21   22 2
    39   21   23 1
    40   23   24 2
    41   23   37 1
    42   24   25 1
    43   24   55 1
    44   25   26 1
    45   25   28 1
    46   26   27 ar
    47   28   33 ar
    48   28   29 ar
    49   29   30 ar
    50   29   56 1
    51   30   31 ar
    52   30   57 1
    53   31   36 1
    54   31   32 ar
    55   32   33 ar
    56   32   34 1
    57   33   58 1
    58   34   35 1
    59   34   59 1
    60   34   60 1
    61   35   36 1
    62   35   61 1
    63   35   62 1
    64   36   63 1
    65   36   64 1
    66   37   38 2
    67   37   39 am
    68   39   40 1
    69   39   65 1
    70   40   41 1
    71   41   66 1
    72   41   67 1
    73   41   68 1
@<TRIPOS>MOLECULE
CHEMBL1088598
   67    71     0     0     0
SMALL
USER_CHARGES

@<TRIPOS>ATOM
      1 C1          1.2565    2.5482    2.2763 C.ar      1 <0>        -0.0801
      2 C2          2.5390    3.0511    2.1631 C.ar      1 <0>        -0.1066
      3 C3          3.5998    2.1948    1.9269 C.ar      1 <0>        -0.0095
      4 C4          3.3767    0.8351    1.8045 C.ar      1 <0>        -0.1051
      5 C5          2.0930    0.3324    1.9184 C.ar      1 <0>        -0.0097
      6 C6          1.0330    1.1897    2.1541 C.ar      1 <0>        -0.1062
      7 Cl1         1.8120   -1.3738    1.7644 Cl        1 <0>        -0.0448
      8 C7          4.5316   -0.0981    1.5467 C.3       1 <0>         0.1716
      9 N1          5.0866   -0.5526    2.8241 N.pl3     1 <0>        -0.7072
     10 C8          6.1684   -1.4277    2.8406 C.ar      1 <0>         0.3363
     11 C9          6.6979   -1.8689    4.0639 C.ar      1 <0>         0.3393
     12 N2          7.7273   -2.7023    4.0765 N.ar      1 <0>        -0.4769
     13 C10         8.2570   -3.1194    2.9384 C.ar      1 <0>         0.0560
     14 C11         7.7357   -2.6849    1.7246 C.ar      1 <0>         0.0718
     15 N3          6.6963   -1.8499    1.7047 N.ar      1 <0>        -0.4606
     16 C12         8.3326   -3.1544    0.4522 C.ar      1 <0>         0.0214
     17 C13         7.8829   -2.6349   -0.7625 C.ar      1 <0>        -0.0844
     18 C14         8.4370   -3.0700   -1.9450 C.ar      1 <0>        -0.0463
     19 C15         9.4501   -4.0321   -1.9289 C.ar      1 <0>        -0.1380
     20 C16         9.8997   -4.5517   -0.7122 C.ar      1 <0>        -0.1399
     21 C17         9.3481   -4.1115    0.4695 C.ar      1 <0>        -0.1336
     22 C18        10.0451   -4.5001   -3.1973 C.2       1 <0>         0.5734
     23 O1          9.4540   -4.3284   -4.2457 O.2       1 <0>        -0.4997
     24 N4         11.2432   -5.1173   -3.1923 N.am      1 <0>        -0.6091
     25 C19        12.0189   -5.4971   -4.3870 C.3       1 <0>         0.1002
     26 C20        12.9273   -6.6605   -3.9167 C.3       1 <0>        -0.1322
     27 C21        13.2877   -6.2113   -2.4759 C.3       1 <0>        -0.1474
     28 C22        11.9959   -5.5176   -1.9945 C.3       1 <0>         0.1086
     29 H1         11.4035   -6.2129   -1.3997 H         1 <0>         0.1067
     30 C23        12.3446   -4.2822   -1.1621 C.3       1 <0>        -0.0532
     31 N5         12.8433   -4.7033    0.1540 N.4       1 <0>        -0.3905
     32 C24        14.1701   -5.3561    0.0140 C.3       1 <0>        -0.0166
     33 C25        14.7840   -5.2187    1.4299 C.3       1 <0>        -0.1455
     34 C26        14.3040   -3.8199    1.8805 C.3       1 <0>        -0.1440
     35 C27        13.0638   -3.5229    1.0174 C.3       1 <0>        -0.0092
     36 N6          6.1427   -1.4312    5.2605 N.pl3     1 <0>        -0.8360
     37 Cl2         5.2103    2.8267    1.7835 Cl        1 <0>        -0.0469
     38 H2          0.4293    3.2166    2.4648 H         1 <0>         0.1481
     39 H3          2.7130    4.1127    2.2586 H         1 <0>         0.1452
     40 H4          0.0307    0.7973    2.2430 H         1 <0>         0.1455
     41 H5          4.1830   -0.9584    0.9754 H         1 <0>         0.0859
     42 H6          5.3025    0.4255    0.9813 H         1 <0>         0.0854
     43 H7          4.7001   -0.2435    3.6583 H         1 <0>         0.4065
     44 H8          9.0966   -3.7986    2.9519 H         1 <0>         0.1607
     45 H9          7.0995   -1.8914   -0.7748 H         1 <0>         0.1482
     46 H10         8.0886   -2.6681   -2.8849 H         1 <0>         0.1450
     47 H11        10.6825   -5.2957   -0.6989 H         1 <0>         0.1330
     48 H12         9.6986   -4.5097    1.4103 H         1 <0>         0.1340
     49 H13        11.3523   -5.8335   -5.1811 H         1 <0>         0.0943
     50 H14        12.6243   -4.6576   -4.7290 H         1 <0>         0.0786
     51 H15        12.3807   -7.6035   -3.9067 H         1 <0>         0.0869
     52 H16        13.8200   -6.7347   -4.5376 H         1 <0>         0.0993
     53 H17        13.5216   -7.0729   -1.8505 H         1 <0>         0.0975
     54 H18        14.1184   -5.5056   -2.4884 H         1 <0>         0.0900
     55 H19        13.1139   -3.7043   -1.6742 H         1 <0>         0.1392
     56 H20        11.4537   -3.6675   -1.0333 H         1 <0>         0.1571
     57 H21        14.0558   -6.4060   -0.2555 H         1 <0>         0.1397
     58 H22        14.7804   -4.8331   -0.7223 H         1 <0>         0.1370
     59 H23        14.3978   -5.9916    2.0944 H         1 <0>         0.0992
     60 H24        15.8723   -5.2567    1.3838 H         1 <0>         0.1175
     61 H25        14.0353   -3.8342    2.9368 H         1 <0>         0.1066
     62 H26        15.0797   -3.0764    1.6968 H         1 <0>         0.1042
     63 H27        13.2421   -2.6409    0.4022 H         1 <0>         0.1320
     64 H28        12.1958   -3.3634    1.6571 H         1 <0>         0.1341
     65 H29         5.3890   -0.8206    5.2507 H         1 <0>         0.4075
     66 H30         6.5088   -1.7362    6.1053 H         1 <0>         0.4127
     67 H31        12.1878   -5.3351    0.5890 H         1 <0>         0.4228
@<TRIPOS>BOND
     1    1    6 ar
     2    1    2 ar
     3    1   38 1
     4    2    3 ar
     5    2   39 1
     6    3    4 ar
     7    3   37 1
     8    4    5 ar
     9    4    8 1
    10    5    6 ar
    11    5    7 1
    12    6   40 1
    13    8    9 1
    14    8   41 1
    15    8   42 1
    16    9   10 1
    17    9   43 1
    18   10   15 ar
    19   10   11 ar
    20   11   12 ar
    21   11   36 1
    22   12   13 ar
    23   13   14 ar
    24   13   44 1
    25   14   15 ar
    26   14   16 1
    27   16   21 ar
    28   16   17 ar
    29   17   18 ar
    30   17   45 1
    31   18   19 ar
    32   18   46 1
    33   19   20 ar
    34   19   22 1
    35   20   21 ar
    36   20   47 1
    37   21   48 1
    38   22   23 2
    39   22   24 am
    40   24   28 1
    41   24   25 1
    42   25   26 1
    43   25   49 1
    44   25   50 1
    45   26   27 1
    46   26   51 1
    47   26   52 1
    48   27   28 1
    49   27   53 1
    50   27   54 1
    51   28   29 1
    52   28   30 1
    53   30   31 1
    54   30   55 1
    55   30   56 1
    56   31   35 1
    57   31   32 1
    58   31   67 1
    59   32   33 1
    60   32   57 1
    61   32   58 1
    62   33   34 1
    63   33   59 1
    64   33   60 1
    65   34   35 1
    66   34   61 1
    67   34   62 1
    68   35   63 1
    69   35   64 1
    70   36   65 1
    71   36   66 1
@<TRIPOS>MOLECULE
CHEMBL518051
   43    46     0     0     0
SMALL
USER_CHARGES

@<TRIPOS>ATOM
      1 C1          1.0860   -0.4602    0.7525 C.ar      1 <0>        -0.0841
      2 C2          2.2745    0.2438    0.7392 C.ar      1 <0>        -0.1151
      3 C3          2.3811    1.4103   -0.0065 C.ar      1 <0>         0.1760
      4 C4          1.2918    1.8661   -0.7371 C.ar      1 <0>        -0.1379
      5 C5          0.1052    1.1577   -0.7200 C.ar      1 <0>        -0.0148
      6 C6          0.0027   -0.0047    0.0245 C.ar      1 <0>        -0.1235
      7 Cl1        -1.2579    1.7264   -1.6324 Cl        1 <0>        -0.0629
      8 N1          3.5838    2.1253   -0.0212 N.am      1 <0>        -0.6779
      9 C7          4.7585    1.4702    0.0657 C.2       1 <0>         0.7004
     10 O1          4.7784    0.2546    0.0596 O.2       1 <0>        -0.5033
     11 N2          5.9109    2.1627    0.1596 N.am      1 <0>        -0.6266
     12 C8          7.1223    1.4870    0.2493 C.2       1 <0>         0.2860
     13 N3          7.3361    0.1891    0.2518 N.2       1 <0>        -0.5158
     14 C9          8.5589   -0.3008    0.3445 C.2       1 <0>         0.0768
     15 C10         9.5748    0.5917    0.4362 C.2       1 <0>        -0.2162
     16 S1          8.6723    2.1310    0.3736 S.3       1 <0>         0.1280
     17 C11        11.0579    0.3512    0.5526 C.3       1 <0>        -0.0363
     18 C12        11.6753    0.2860   -0.8457 C.3       1 <0>         0.1313
     19 N4         13.1171    0.0522   -0.7326 N.pl3     1 <0>        -0.7061
     20 C13        13.8949   -0.0448   -1.8749 C.ar      1 <0>         0.4986
     21 C14        15.2577   -0.2712   -1.7887 C.ar      1 <0>        -0.2996
     22 C15        16.0555   -0.3716   -2.9487 C.ar      1 <0>         0.1938
     23 C16        17.4235   -0.6022   -2.7204 C.2       1 <0>        -0.1561
     24 C17        17.8907   -0.7126   -1.4622 C.2       1 <0>        -0.1043
     25 S2         16.4217   -0.4971   -0.4711 S.3       1 <0>         0.0744
     26 N5         15.3968   -0.2319   -4.1261 N.ar      1 <0>        -0.5372
     27 C18        14.1074   -0.0188   -4.1645 C.ar      1 <0>         0.3437
     28 N6         13.3491    0.0719   -3.0857 N.ar      1 <0>        -0.5638
     29 H1          1.0044   -1.3699    1.3289 H         1 <0>         0.1384
     30 H2          3.1201   -0.1128    1.3086 H         1 <0>         0.1426
     31 H3          1.3716    2.7733   -1.3178 H         1 <0>         0.1376
     32 H4         -0.9253   -0.5572    0.0363 H         1 <0>         0.1366
     33 H5          3.5722    3.0925   -0.0941 H         1 <0>         0.4112
     34 H6          5.8950    3.1325    0.1645 H         1 <0>         0.4247
     35 H7          8.7413   -1.3653    0.3475 H         1 <0>         0.1767
     36 H8         11.5152    1.1660    1.1141 H         1 <0>         0.0881
     37 H9         11.2335   -0.5911    1.0716 H         1 <0>         0.0988
     38 H10        11.2181   -0.5287   -1.4072 H         1 <0>         0.0778
     39 H11        11.4997    1.2283   -1.3647 H         1 <0>         0.0747
     40 H12        13.5272   -0.0346    0.1422 H         1 <0>         0.4118
     41 H13        18.1015   -0.6915   -3.5564 H         1 <0>         0.1518
     42 H14        18.9044   -0.8881   -1.1337 H         1 <0>         0.2028
     43 H15        13.6355    0.0848   -5.1304 H         1 <0>         0.1990
@<TRIPOS>BOND
     1    1    6 ar
     2    1    2 ar
     3    1   29 1
     4    2    3 ar
     5    2   30 1
     6    3    4 ar
     7    3    8 1
     8    4    5 ar
     9    4   31 1
    10    5    6 ar
    11    5    7 1
    12    6   32 1
    13    8    9 am
    14    8   33 1
    15    9   10 2
    16    9   11 am
    17   11   12 1
    18   11   34 1
    19   12   16 1
    20   12   13 2
    21   13   14 1
    22   14   15 2
    23   14   35 1
    24   15   16 1
    25   15   17 1
    26   17   18 1
    27   17   36 1
    28   17   37 1
    29   18   19 1
    30   18   38 1
    31   18   39 1
    32   19   20 1
    33   19   40 1
    34   20   28 ar
    35   20   21 ar
    36   21   25 1
    37   21   22 ar
    38   22   23 1
    39   22   26 ar
    40   23   24 2
    41   23   41 1
    42   24   25 1
    43   24   42 1
    44   26   27 ar
    45   27   28 ar
    46   27   43 1
@<TRIPOS>MOLECULE
CHEMBL253026
   49    52     0     0     0
SMALL
USER_CHARGES

@<TRIPOS>ATOM
      1 C1         -0.0744    1.5191    0.0470 C.3       1 <0>        -0.0758
      2 C2         -0.0469    0.0124    0.0319 C.2       1 <0>        -0.2277
      3 C3         -0.0418   -0.7993   -1.1075 C.2       1 <0>         0.0602
      4 N1         -0.0147   -2.0492   -0.7200 N.2       1 <0>        -0.2883
      5 N2         -0.0018   -2.0734    0.6806 N.pl3     1 <0>        -0.3209
      6 C4         -0.0169   -0.7942    1.1183 C.2       1 <0>         0.0512
      7 C5          0.0263   -3.2212    1.4861 C.ar      1 <0>         0.1589
      8 C6          0.0301   -3.0979    2.8694 C.ar      1 <0>        -0.1267
      9 C7          0.0578   -4.2259    3.6661 C.ar      1 <0>        -0.0850
     10 C8          0.0823   -5.4859    3.0862 C.ar      1 <0>         0.1219
     11 C9          0.0785   -5.6130    1.6968 C.ar      1 <0>         0.1800
     12 C10         0.0445   -4.4792    0.9000 C.ar      1 <0>        -0.1083
     13 N3          0.1031   -6.8822    1.1091 N.pl3     1 <0>        -0.6754
     14 C11        -1.1477   -7.5860    0.7950 C.3       1 <0>         0.1408
     15 C12        -1.1260   -7.9951   -0.6812 C.3       1 <0>        -0.1368
     16 C13         0.1401   -8.8074   -0.9627 C.3       1 <0>        -0.1158
     17 C14         1.3737   -7.9462   -0.6819 C.3       1 <0>        -0.1377
     18 C15         1.3803   -7.5341    0.7886 C.3       1 <0>         0.1464
     19 N4          0.1113   -6.6296    3.8949 N.am      1 <0>        -0.6480
     20 C16         0.7812   -6.6113    5.0642 C.2       1 <0>         0.6040
     21 O1          1.2920   -5.5790    5.4567 O.2       1 <0>        -0.4904
     22 C17         0.8948   -7.8384    5.8654 C.2       1 <0>        -0.0395
     23 C18         1.5393   -7.9507    7.0653 C.2       1 <0>        -0.1137
     24 C19         1.4062   -9.2810    7.4784 C.2       1 <0>        -0.1282
     25 C20         0.6796   -9.9296    6.5044 C.2       1 <0>         0.0772
     26 O2          0.3764   -9.0385    5.5427 O.3       1 <0>        -0.1443
     27 C21         0.3066  -11.3121    6.5159 C.1       1 <0>         0.2806
     28 N5          0.0106  -12.4088    6.5250 N.1       1 <0>        -0.3558
     29 H1          0.9463    1.9012    0.0363 H         1 <0>         0.0644
     30 H2         -0.6073    1.8816   -0.8321 H         1 <0>         0.0663
     31 H3         -0.5822    1.8642    0.9476 H         1 <0>         0.0629
     32 H4         -0.0577   -0.4540   -2.1307 H         1 <0>         0.1891
     33 H5         -0.0086   -0.4737    2.1496 H         1 <0>         0.1776
     34 H6          0.0118   -2.1180    3.3231 H         1 <0>         0.1360
     35 H7          0.0607   -4.1269    4.7415 H         1 <0>         0.1529
     36 H8          0.0367   -4.5745   -0.1757 H         1 <0>         0.1430
     37 H9         -1.2333   -8.4754    1.4194 H         1 <0>         0.0524
     38 H10        -1.9949   -6.9252    0.9786 H         1 <0>         0.0701
     39 H11        -2.0041   -8.6013   -0.9037 H         1 <0>         0.0687
     40 H12        -1.1318   -7.1021   -1.3063 H         1 <0>         0.0655
     41 H13         0.1575   -9.6873   -0.3197 H         1 <0>         0.0611
     42 H14         0.1459   -9.1206   -2.0067 H         1 <0>         0.0614
     43 H15         2.2747   -8.5177   -0.9050 H         1 <0>         0.0688
     44 H16         1.3443   -7.0538   -1.3070 H         1 <0>         0.0650
     45 H17         2.2005   -6.8390    0.9681 H         1 <0>         0.0684
     46 H18         1.5054   -8.4191    1.4125 H         1 <0>         0.0512
     47 H19        -0.3509   -7.4346    3.6133 H         1 <0>         0.4183
     48 H20         2.0538   -7.1622    7.5944 H         1 <0>         0.1778
     49 H21         1.7982   -9.7156    8.3860 H         1 <0>         0.1764
@<TRIPOS>BOND
     1    1    2 1
     2    1   29 1
     3    1   30 1
     4    1   31 1
     5    2    6 2
     6    2    3 1
     7    3    4 2
     8    3   32 1
     9    4    5 1
    10    5    6 1
    11    5    7 1
    12    6   33 1
    13    7   12 ar
    14    7    8 ar
    15    8    9 ar
    16    8   34 1
    17    9   10 ar
    18    9   35 1
    19   10   11 ar
    20   10   19 1
    21   11   12 ar
    22   11   13 1
    23   12   36 1
    24   13   18 1
    25   13   14 1
    26   14   15 1
    27   14   37 1
    28   14   38 1
    29   15   16 1
    30   15   39 1
    31   15   40 1
    32   16   17 1
    33   16   41 1
    34   16   42 1
    35   17   18 1
    36   17   43 1
    37   17   44 1
    38   18   45 1
    39   18   46 1
    40   19   20 am
    41   19   47 1
    42   20   21 2
    43   20   22 1
    44   22   26 1
    45   22   23 2
    46   23   24 1
    47   23   48 1
    48   24   25 2
    49   24   49 1
    50   25   26 1
    51   25   27 1
    52   27   28 3
@<TRIPOS>MOLECULE
CHEMBL253027
   46    49     0     0     0
SMALL
USER_CHARGES

@<TRIPOS>ATOM
      1 C1         -0.0198    1.4000    0.0311 C.ar      1 <0>        -0.1163
      2 C2          1.1688    2.1047    0.0146 C.ar      1 <0>        -0.0860
      3 C3          2.3782    1.4266   -0.0044 C.ar      1 <0>         0.1270
      4 C4          2.3940    0.0311   -0.0065 C.ar      1 <0>         0.1836
      5 C5          1.2003   -0.6726    0.0105 C.ar      1 <0>        -0.1221
      6 C6         -0.0072    0.0119    0.0291 C.ar      1 <0>         0.1314
      7 N1         -1.2163   -0.7000    0.0464 N.pl3     1 <0>        -0.4097
      8 C7         -2.4776   -0.1635    0.0605 C.2       1 <0>        -0.0530
      9 C8         -3.3410   -1.1969    0.0739 C.2       1 <0>        -0.0210
     10 N2         -2.6316   -2.3351    0.0682 N.2       1 <0>        -0.4839
     11 C9         -1.3578   -2.0506    0.0463 C.2       1 <0>         0.1882
     12 N3          3.6124   -0.6559   -0.0261 N.pl3     1 <0>        -0.6763
     13 C10         4.2808   -1.0305    1.2275 C.3       1 <0>         0.1398
     14 C11         4.5710   -2.5345    1.2012 C.3       1 <0>        -0.1363
     15 C12         5.3664   -2.8746   -0.0612 C.3       1 <0>        -0.1169
     16 C13         4.5384   -2.5207   -1.2987 C.3       1 <0>        -0.1372
     17 C14         4.2449   -1.0219   -1.3008 C.3       1 <0>         0.1453
     18 N4          3.5830    2.1417   -0.0221 N.am      1 <0>        -0.6494
     19 C15         3.6626    3.3116   -0.6865 C.2       1 <0>         0.6050
     20 O1          2.6684    3.7873   -1.2021 O.2       1 <0>        -0.4895
     21 C16         4.9504    4.0128   -0.7883 C.2       1 <0>        -0.0411
     22 C17         5.1625    5.2026   -1.4262 C.2       1 <0>        -0.1123
     23 C18         6.5205    5.5078   -1.2824 C.2       1 <0>        -0.1283
     24 C19         7.0844    4.4820   -0.5564 C.2       1 <0>         0.0786
     25 O2          6.1175    3.5932   -0.2636 O.3       1 <0>        -0.1446
     26 C20         8.4608    4.3817   -0.1743 C.1       1 <0>         0.2800
     27 N5          9.5528    4.3020    0.1289 N.1       1 <0>        -0.3548
     28 H1         -0.9605    1.9303    0.0501 H         1 <0>         0.1375
     29 H2          1.1557    3.1846    0.0162 H         1 <0>         0.1530
     30 H3          1.2094   -1.7526    0.0090 H         1 <0>         0.1369
     31 H4         -2.7305    0.8865    0.0611 H         1 <0>         0.1792
     32 H5         -4.4183   -1.1221    0.0873 H         1 <0>         0.1756
     33 H6         -0.5515   -2.7691    0.0326 H         1 <0>         0.2066
     34 H7          5.2166   -0.4795    1.3214 H         1 <0>         0.0531
     35 H8          3.6313   -0.7983    2.0715 H         1 <0>         0.0708
     36 H9          5.1518   -2.8084    2.0820 H         1 <0>         0.0696
     37 H10         3.6310   -3.0863    1.1986 H         1 <0>         0.0650
     38 H11         6.2949   -2.3037   -0.0702 H         1 <0>         0.0615
     39 H12         5.5954   -3.9402   -0.0701 H         1 <0>         0.0621
     40 H13         5.0961   -2.7848   -2.1972 H         1 <0>         0.0697
     41 H14         3.5987   -3.0727   -1.2777 H         1 <0>         0.0644
     42 H15         3.5717   -0.7841   -2.1244 H         1 <0>         0.0691
     43 H16         5.1777   -0.4702   -1.4175 H         1 <0>         0.0519
     44 H17         4.3598    1.7947    0.4439 H         1 <0>         0.4188
     45 H18         4.4223    5.7950   -1.9436 H         1 <0>         0.1780
     46 H19         7.0288    6.3796   -1.6670 H         1 <0>         0.1768
@<TRIPOS>BOND
     1    1    6 ar
     2    1    2 ar
     3    1   28 1
     4    2    3 ar
     5    2   29 1
     6    3    4 ar
     7    3   18 1
     8    4    5 ar
     9    4   12 1
    10    5    6 ar
    11    5   30 1
    12    6    7 1
    13    7   11 1
    14    7    8 1
    15    8    9 2
    16    8   31 1
    17    9   10 1
    18    9   32 1
    19   10   11 2
    20   11   33 1
    21   12   17 1
    22   12   13 1
    23   13   14 1
    24   13   34 1
    25   13   35 1
    26   14   15 1
    27   14   36 1
    28   14   37 1
    29   15   16 1
    30   15   38 1
    31   15   39 1
    32   16   17 1
    33   16   40 1
    34   16   41 1
    35   17   42 1
    36   17   43 1
    37   18   19 am
    38   18   44 1
    39   19   20 2
    40   19   21 1
    41   21   25 1
    42   21   22 2
    43   22   23 1
    44   22   45 1
    45   23   24 2
    46   23   46 1
    47   24   25 1
    48   24   26 1
    49   26   27 3
@<TRIPOS>MOLECULE
CHEMBL1087661
   58    61     0     0     0
SMALL
USER_CHARGES

@<TRIPOS>ATOM
      1 C1         -0.0178    1.4608    0.0101 C.3       1 <0>         0.0983
      2 N1          0.0021   -0.0041    0.0020 N.pl3     1 <0>        -0.3722
      3 C2          0.0078   -0.7882   -1.0944 C.2       1 <0>         0.0986
      4 C3          0.0273   -2.0864   -0.6734 C.2       1 <0>        -0.1939
      5 C4          0.0335   -2.0757    0.7355 C.2       1 <0>         0.0713
      6 N2          0.0245   -0.8307    1.1318 N.2       1 <0>        -0.2924
      7 C5          0.0390   -3.2897   -1.5413 C.ar      1 <0>         0.1411
      8 C6          0.0531   -4.5583   -0.9708 C.ar      1 <0>         0.0687
      9 N3          0.0635   -5.6321   -1.7422 N.ar      1 <0>        -0.4703
     10 C7          0.0601   -5.5027   -3.0610 C.ar      1 <0>         0.3504
     11 C8          0.0454   -4.2281   -3.6384 C.ar      1 <0>         0.2359
     12 N4          0.0304   -3.1549   -2.8662 N.ar      1 <0>        -0.4695
     13 O1          0.0419   -4.0937   -4.9892 O.3       1 <0>        -0.3003
     14 C9          0.0268   -2.7626   -5.5087 C.3       1 <0>         0.1215
     15 C10         0.0250   -2.8112   -7.0149 C.ar      1 <0>        -0.0983
     16 C11         1.2223   -2.8263   -7.7060 C.ar      1 <0>        -0.0879
     17 C12         1.2260   -2.8709   -9.0876 C.ar      1 <0>        -0.1777
     18 C13         0.0279   -2.9010   -9.7830 C.ar      1 <0>         0.1153
     19 C14        -1.1773   -2.8862   -9.0875 C.ar      1 <0>         0.0973
     20 C15        -1.1739   -2.8464   -7.7024 C.ar      1 <0>        -0.1473
     21 O2         -2.3558   -2.9156   -9.7655 O.3       1 <0>        -0.3039
     22 C16        -3.5533   -2.8981   -8.9860 C.3       1 <0>         0.0251
     23 O3          0.0297   -2.9443  -11.1423 O.3       1 <0>        -0.2963
     24 C17         1.3038   -2.9566  -11.7892 C.3       1 <0>         0.1049
     25 C18         1.1084   -3.0056  -13.2827 C.ar      1 <0>        -0.1358
     26 C19         1.0212   -4.2255  -13.9277 C.ar      1 <0>        -0.0528
     27 C20         0.8425   -4.2731  -15.2967 C.ar      1 <0>        -0.1550
     28 C21         0.7502   -3.0955  -16.0244 C.ar      1 <0>         0.1390
     29 C22         0.8376   -1.8728  -15.3748 C.ar      1 <0>        -0.2120
     30 C23         1.0111   -1.8306  -14.0049 C.ar      1 <0>        -0.0522
     31 O4          0.5749   -3.1397  -17.3713 O.3       1 <0>        -0.3160
     32 C24         0.4883   -1.8882  -18.0556 C.3       1 <0>         0.0256
     33 N5          0.0715   -6.6347   -3.8720 N.pl3     1 <0>        -0.8362
     34 H1          1.0048    1.8381    0.0023 H         1 <0>         0.0783
     35 H2         -0.5450    1.8219   -0.8730 H         1 <0>         0.0900
     36 H3         -0.5280    1.8123    0.9069 H         1 <0>         0.0925
     37 H4         -0.0018   -0.4504   -2.1202 H         1 <0>         0.1810
     38 H5          0.0482   -2.9451    1.3762 H         1 <0>         0.1898
     39 H6          0.0558   -4.6663    0.1038 H         1 <0>         0.1711
     40 H7         -0.8683   -2.2469   -5.1608 H         1 <0>         0.0737
     41 H8          0.9116   -2.2278   -5.1635 H         1 <0>         0.0763
     42 H9          2.1569   -2.8029   -7.1651 H         1 <0>         0.1296
     43 H10         2.1627   -2.8818   -9.6251 H         1 <0>         0.1386
     44 H11        -2.1078   -2.8386   -7.1601 H         1 <0>         0.1365
     45 H12        -3.5831   -1.9885   -8.3861 H         1 <0>         0.0549
     46 H13        -4.4185   -2.9251   -9.6484 H         1 <0>         0.1020
     47 H14        -3.5718   -3.7675   -8.3287 H         1 <0>         0.0555
     48 H15         1.8546   -2.0541  -11.5243 H         1 <0>         0.0709
     49 H16         1.8663   -3.8331  -11.4674 H         1 <0>         0.0720
     50 H17         1.0931   -5.1419  -13.3608 H         1 <0>         0.1322
     51 H18         0.7751   -5.2262  -15.8001 H         1 <0>         0.1346
     52 H19         0.7660   -0.9547  -15.9390 H         1 <0>         0.1314
     53 H20         1.0748   -0.8790  -13.4982 H         1 <0>         0.1273
     54 H21        -0.3577   -1.3202  -17.6686 H         1 <0>         0.0572
     55 H22         1.4074   -1.3237  -17.8983 H         1 <0>         0.0570
     56 H23         0.3493   -2.0661  -19.1220 H         1 <0>         0.1023
     57 H24         0.0820   -7.5181   -3.4716 H         1 <0>         0.4070
     58 H25         0.0690   -6.5397   -4.8374 H         1 <0>         0.4154
@<TRIPOS>BOND
     1    1    2 1
     2    1   34 1
     3    1   35 1
     4    1   36 1
     5    2    6 1
     6    2    3 1
     7    3    4 2
     8    3   37 1
     9    4    5 1
    10    4    7 1
    11    5    6 2
    12    5   38 1
    13    7   12 ar
    14    7    8 ar
    15    8    9 ar
    16    8   39 1
    17    9   10 ar
    18   10   11 ar
    19   10   33 1
    20   11   12 ar
    21   11   13 1
    22   13   14 1
    23   14   15 1
    24   14   40 1
    25   14   41 1
    26   15   20 ar
    27   15   16 ar
    28   16   17 ar
    29   16   42 1
    30   17   18 ar
    31   17   43 1
    32   18   19 ar
    33   18   23 1
    34   19   20 ar
    35   19   21 1
    36   20   44 1
    37   21   22 1
    38   22   45 1
    39   22   46 1
    40   22   47 1
    41   23   24 1
    42   24   25 1
    43   24   48 1
    44   24   49 1
    45   25   30 ar
    46   25   26 ar
    47   26   27 ar
    48   26   50 1
    49   27   28 ar
    50   27   51 1
    51   28   29 ar
    52   28   31 1
    53   29   30 ar
    54   29   52 1
    55   30   53 1
    56   31   32 1
    57   32   54 1
    58   32   55 1
    59   32   56 1
    60   33   57 1
    61   33   58 1
@<TRIPOS>MOLECULE
CHEMBL258474
   55    58     0     0     0
SMALL
USER_CHARGES

@<TRIPOS>ATOM
      1 C1          0.0035    1.4606    0.0211 C.3       1 <0>        -0.1262
      2 C2         -0.0370   -0.0452   -0.0231 C.ar      1 <0>        -0.0620
      3 C3         -0.0625   -0.7009   -1.2375 C.ar      1 <0>        -0.1193
      4 C4         -0.1003   -2.0828   -1.2795 C.ar      1 <0>        -0.1025
      5 C5         -0.1127   -2.8158   -0.1062 C.ar      1 <0>        -0.1238
      6 C6         -0.0875   -2.1711    1.1135 C.ar      1 <0>        -0.0970
      7 C7         -0.0432   -0.7786    1.1619 C.ar      1 <0>        -0.0727
      8 C8         -0.0097   -0.0800    2.4697 C.ar      1 <0>        -0.0079
      9 C9          1.0904   -0.2241    3.3110 C.ar      1 <0>        -0.1545
     10 C10         1.1162    0.4312    4.5324 C.ar      1 <0>         0.1896
     11 C11         0.0463    1.2307    4.9179 C.ar      1 <0>        -0.1629
     12 C12        -1.0474    1.3770    4.0879 C.ar      1 <0>        -0.0682
     13 C13        -1.0812    0.7311    2.8603 C.ar      1 <0>         0.1213
     14 N1         -2.1863    0.8854    2.0178 N.am      1 <0>        -0.6565
     15 C14        -2.8523    2.0567    1.9876 C.2       1 <0>         0.6083
     16 O1         -2.4317    3.0120    2.6129 O.2       1 <0>        -0.4912
     17 C15        -4.0867    2.1801    1.1993 C.2       1 <0>        -0.0499
     18 C16        -4.8488    3.3084    1.0821 C.2       1 <0>        -0.1082
     19 C17        -5.9247    2.9906    0.2458 C.2       1 <0>        -0.1298
     20 C18        -5.7720    1.6700   -0.1150 C.2       1 <0>         0.0854
     21 O2         -4.6528    1.2019    0.4672 O.3       1 <0>        -0.1446
     22 C19        -6.6496    0.9255   -0.9671 C.1       1 <0>         0.2758
     23 N2         -7.3459    0.3349   -1.6431 N.1       1 <0>        -0.3486
     24 N3          2.2208    0.2873    5.3787 N.pl3     1 <0>        -0.6442
     25 C20         3.3116   -0.6425    5.0473 C.3       1 <0>         0.0989
     26 C21         4.6421    0.1084    5.1635 C.3       1 <0>        -0.0236
     27 N4          4.7463    0.7143    6.4970 N.4       1 <0>        -0.3836
     28 C22         3.7020    1.7324    6.6667 C.3       1 <0>        -0.0232
     29 C23         2.3275    1.0661    6.6222 C.3       1 <0>         0.0993
     30 C24         6.0668    1.3403    6.6466 C.3       1 <0>        -0.0471
     31 H1          1.0406    1.7963    0.0201 H         1 <0>         0.0711
     32 H2         -0.5097    1.8636   -0.8520 H         1 <0>         0.0682
     33 H3         -0.4909    1.8109    0.9271 H         1 <0>         0.0736
     34 H4         -0.0533   -0.1338   -2.1565 H         1 <0>         0.1267
     35 H5         -0.1205   -2.5917   -2.2319 H         1 <0>         0.1267
     36 H6         -0.1426   -3.8947   -0.1450 H         1 <0>         0.1270
     37 H7         -0.0977   -2.7442    2.0288 H         1 <0>         0.1241
     38 H8          1.9218   -0.8456    3.0128 H         1 <0>         0.1295
     39 H9          0.0705    1.7392    5.8704 H         1 <0>         0.1295
     40 H10        -1.8761    1.9988    4.3928 H         1 <0>         0.1436
     41 H11        -2.4737    0.1494    1.4551 H         1 <0>         0.4190
     42 H12        -4.6570    4.2642    1.5469 H         1 <0>         0.1780
     43 H13        -6.7215    3.6532   -0.0584 H         1 <0>         0.1781
     44 H14         3.3023   -1.4811    5.7436 H         1 <0>         0.0885
     45 H15         3.1847   -1.0075    4.0281 H         1 <0>         0.1261
     46 H16         5.4670   -0.5886    5.0155 H         1 <0>         0.1408
     47 H17         4.6859    0.8899    4.4048 H         1 <0>         0.1326
     48 H18         3.8340    2.2321    7.6264 H         1 <0>         0.1416
     49 H19         3.7742    2.4647    5.8625 H         1 <0>         0.1326
     50 H20         1.5504    1.8301    6.6437 H         1 <0>         0.1274
     51 H21         2.2172    0.4030    7.4802 H         1 <0>         0.0879
     52 H22         6.1919    2.1108    5.8859 H         1 <0>         0.1216
     53 H23         6.1455    1.7904    7.6362 H         1 <0>         0.1253
     54 H24         6.8429    0.5840    6.5287 H         1 <0>         0.1249
     55 H25         4.6344   -0.0010    7.1997 H         1 <0>         0.4247
@<TRIPOS>BOND
     1    1    2 1
     2    1   31 1
     3    1   32 1
     4    1   33 1
     5    2    7 ar
     6    2    3 ar
     7    3    4 ar
     8    3   34 1
     9    4    5 ar
    10    4   35 1
    11    5    6 ar
    12    5   36 1
    13    6    7 ar
    14    6   37 1
    15    7    8 1
    16    8   13 ar
    17    8    9 ar
    18    9   10 ar
    19    9   38 1
    20   10   11 ar
    21   10   24 1
    22   11   12 ar
    23   11   39 1
    24   12   13 ar
    25   12   40 1
    26   13   14 1
    27   14   15 am
    28   14   41 1
    29   15   16 2
    30   15   17 1
    31   17   21 1
    32   17   18 2
    33   18   19 1
    34   18   42 1
    35   19   20 2
    36   19   43 1
    37   20   21 1
    38   20   22 1
    39   22   23 3
    40   24   29 1
    41   24   25 1
    42   25   26 1
    43   25   44 1
    44   25   45 1
    45   26   27 1
    46   26   46 1
    47   26   47 1
    48   27   28 1
    49   27   30 1
    50   27   55 1
    51   28   29 1
    52   28   48 1
    53   28   49 1
    54   29   50 1
    55   29   51 1
    56   30   52 1
    57   30   53 1
    58   30   54 1
@<TRIPOS>MOLECULE
CHEMBL258474__1
   54    57     0     0     0
SMALL
USER_CHARGES

@<TRIPOS>ATOM
      1 C1          0.0035    1.4609    0.0211 C.3       1 <0>        -0.1264
      2 C2         -0.0396   -0.0448   -0.0261 C.ar      1 <0>        -0.0629
      3 C3         -0.0668   -0.6979   -1.2418 C.ar      1 <0>        -0.1213
      4 C4         -0.1069   -2.0797   -1.2866 C.ar      1 <0>        -0.1095
      5 C5         -0.1200   -2.8150   -0.1148 C.ar      1 <0>        -0.1257
      6 C6         -0.0930   -2.1728    1.1062 C.ar      1 <0>        -0.0980
      7 C7         -0.0463   -0.7805    1.1574 C.ar      1 <0>        -0.0594
      8 C8         -0.0110   -0.0846    2.4666 C.ar      1 <0>        -0.0092
      9 C9          1.0893   -0.2323    3.3070 C.ar      1 <0>        -0.1689
     10 C10         1.1168    0.4205    4.5297 C.ar      1 <0>         0.2185
     11 C11         0.0484    1.2210    4.9174 C.ar      1 <0>        -0.1793
     12 C12        -1.0454    1.3707    4.0883 C.ar      1 <0>        -0.0625
     13 C13        -1.0809    0.7274    2.8594 C.ar      1 <0>         0.0902
     14 N1         -2.1862    0.8853    2.0178 N.am      1 <0>        -0.6495
     15 C14        -2.8503    2.0577    1.9903 C.2       1 <0>         0.6005
     16 O1         -2.4278    3.0111    2.6173 O.2       1 <0>        -0.4913
     17 C15        -4.0849    2.1848    1.2030 C.2       1 <0>        -0.0372
     18 C16        -4.8452    3.3147    1.0884 C.2       1 <0>        -0.1171
     19 C17        -5.9220    3.0003    0.2520 C.2       1 <0>        -0.1281
     20 C18        -5.7717    1.6802   -0.1115 C.2       1 <0>         0.0740
     21 O2         -4.6530    1.2090    0.4691 O.3       1 <0>        -0.1435
     22 C19        -6.6510    0.9390   -0.9647 C.1       1 <0>         0.2816
     23 N2         -7.3486    0.3509   -1.6415 N.1       1 <0>        -0.3580
     24 N3          2.2217    0.2730    5.3751 N.pl3     1 <0>        -0.6293
     25 C20         2.3264    1.0457    6.6223 C.3       1 <0>         0.1249
     26 C21         2.6237    0.0768    7.7717 C.3       1 <0>         0.0384
     27 N4          3.8074   -0.7262    7.4372 N.3       1 <0>        -0.5426
     28 C22         3.5679   -1.5605    6.2521 C.3       1 <0>         0.0388
     29 C23         3.3064   -0.6632    5.0435 C.3       1 <0>         0.1256
     30 C24         4.2283   -1.5455    8.5816 C.3       1 <0>         0.0243
     31 H1          1.0411    1.7949    0.0203 H         1 <0>         0.0721
     32 H2         -0.5095    1.8666   -0.8509 H         1 <0>         0.0642
     33 H3         -0.4899    1.8102    0.9281 H         1 <0>         0.0769
     34 H4         -0.0572   -0.1289   -2.1597 H         1 <0>         0.1236
     35 H5         -0.1284   -2.5865   -2.2401 H         1 <0>         0.1229
     36 H6         -0.1517   -3.8938   -0.1558 H         1 <0>         0.1239
     37 H7         -0.1036   -2.7478    2.0203 H         1 <0>         0.1240
     38 H8          1.9195   -0.8546    3.0071 H         1 <0>         0.1288
     39 H9          0.0740    1.7274    5.8710 H         1 <0>         0.1287
     40 H10        -1.8729    1.9933    4.3949 H         1 <0>         0.1368
     41 H11        -2.4752    0.1509    1.4538 H         1 <0>         0.4146
     42 H12        -4.6516    4.2692    1.5550 H         1 <0>         0.1773
     43 H13        -6.7178    3.6649   -0.0504 H         1 <0>         0.1756
     44 H14         3.1351    1.7714    6.5366 H         1 <0>         0.0717
     45 H15         1.3857    1.5624    6.8129 H         1 <0>         0.0882
     46 H16         2.8136    0.6422    8.6840 H         1 <0>         0.0864
     47 H17         1.7683   -0.5817    7.9227 H         1 <0>         0.0388
     48 H18         4.4427   -2.1826    6.0625 H         1 <0>         0.0864
     49 H19         2.6994   -2.1962    6.4244 H         1 <0>         0.0381
     50 H20         3.0134   -1.2759    4.1909 H         1 <0>         0.0860
     51 H21         4.2112   -0.1050    4.8031 H         1 <0>         0.0707
     52 H22         3.4184   -2.2179    8.8644 H         1 <0>         0.0259
     53 H23         5.1064   -2.1298    8.3067 H         1 <0>         0.0703
     54 H24         4.4723   -0.8967    9.4227 H         1 <0>         0.0709
@<TRIPOS>BOND
     1    1    2 1
     2    1   31 1
     3    1   32 1
     4    1   33 1
     5    2    7 ar
     6    2    3 ar
     7    3    4 ar
     8    3   34 1
     9    4    5 ar
    10    4   35 1
    11    5    6 ar
    12    5   36 1
    13    6    7 ar
    14    6   37 1
    15    7    8 1
    16    8   13 ar
    17    8    9 ar
    18    9   10 ar
    19    9   38 1
    20   10   11 ar
    21   10   24 1
    22   11   12 ar
    23   11   39 1
    24   12   13 ar
    25   12   40 1
    26   13   14 1
    27   14   15 am
    28   14   41 1
    29   15   16 2
    30   15   17 1
    31   17   21 1
    32   17   18 2
    33   18   19 1
    34   18   42 1
    35   19   20 2
    36   19   43 1
    37   20   21 1
    38   20   22 1
    39   22   23 3
    40   24   29 1
    41   24   25 1
    42   25   26 1
    43   25   44 1
    44   25   45 1
    45   26   27 1
    46   26   46 1
    47   26   47 1
    48   27   28 1
    49   27   30 1
    50   28   29 1
    51   28   48 1
    52   28   49 1
    53   29   50 1
    54   29   51 1
    55   30   52 1
    56   30   53 1
    57   30   54 1
@<TRIPOS>MOLECULE
CHEMBL497350
   71    75     0     0     0
SMALL
USER_CHARGES

@<TRIPOS>ATOM
      1 C1         -0.0209    1.5022    0.0585 C.3       1 <0>        -0.1325
      2 C2         -0.0022   -0.0045    0.0322 C.ar      1 <0>        -0.0751
      3 C3          0.7558   -0.7014    0.9520 C.ar      1 <0>        -0.0976
      4 C4          0.7762   -2.0830    0.9319 C.ar      1 <0>        -0.1336
      5 C5          0.0337   -2.7791   -0.0147 C.ar      1 <0>         0.1357
      6 C6         -0.7305   -2.0869   -0.9417 C.ar      1 <0>        -0.0978
      7 C7         -0.7547   -0.6943   -0.9173 C.ar      1 <0>        -0.0328
      8 C8         -1.5741    0.0524   -1.9021 C.ar      1 <0>        -0.0191
      9 C9         -2.9648   -0.0557   -1.8767 C.ar      1 <0>        -0.1021
     10 C10        -3.7264    0.6371   -2.7904 C.ar      1 <0>        -0.0874
     11 C11        -3.1063    1.4490   -3.7432 C.ar      1 <0>        -0.0187
     12 C12        -1.7141    1.5570   -3.7676 C.ar      1 <0>        -0.0651
     13 C13        -0.9543    0.8669   -2.8496 C.ar      1 <0>        -0.0659
     14 C14         0.5477    0.9877   -2.8720 C.3       1 <0>        -0.1313
     15 C15        -3.9227    2.1927   -4.7247 C.2       1 <0>         0.2052
     16 N1         -3.4734    2.9822   -5.6724 N.2       1 <0>        -0.2711
     17 N2         -4.4683    3.4584   -6.3348 N.2       1 <0>        -0.2836
     18 C16        -5.5826    2.9957   -5.8404 C.2       1 <0>         0.1668
     19 O1         -5.2676    2.1823   -4.8177 O.3       1 <0>        -0.2218
     20 C17        -6.9723    3.3113   -6.3306 C.3       1 <0>        -0.0604
     21 N3          0.0577   -4.1774   -0.0324 N.am      1 <0>        -0.6674
     22 C18        -0.0414   -4.8384   -1.2028 C.2       1 <0>         0.5536
     23 O2         -0.0548   -4.2213   -2.2500 O.2       1 <0>        -0.5054
     24 C19        -0.1337   -6.3136   -1.2129 C.ar      1 <0>        -0.1233
     25 C20        -0.1244   -7.0249   -0.0118 C.ar      1 <0>        -0.0841
     26 C21        -0.2108   -8.4016   -0.0284 C.ar      1 <0>        -0.1243
     27 C22        -0.3062   -9.0774   -1.2320 C.ar      1 <0>        -0.0679
     28 C23        -0.3156   -8.3785   -2.4261 C.ar      1 <0>        -0.0990
     29 C24        -0.2365   -7.0012   -2.4234 C.ar      1 <0>        -0.0531
     30 C25        -0.3998  -10.5815   -1.2423 C.3       1 <0>         0.0935
     31 N4         -1.8112  -10.9847   -1.1843 N.3       1 <0>        -0.5346
     32 C26        -2.4132  -10.6110    0.1034 C.3       1 <0>         0.0184
     33 C27        -3.8948  -10.9937    0.1006 C.3       1 <0>        -0.0025
     34 N5         -4.0267  -12.4399   -0.1198 N.4       1 <0>        -0.3883
     35 C28        -3.4431  -12.7940   -1.4204 C.3       1 <0>        -0.0025
     36 C29        -1.9577  -12.4263   -1.4302 C.3       1 <0>         0.0250
     37 C30        -5.4483  -12.8096   -0.1044 C.3       1 <0>        -0.0461
     38 H1         -0.8231    1.8442    0.7124 H         1 <0>         0.0733
     39 H2          0.9344    1.8710    0.4318 H         1 <0>         0.0715
     40 H3         -0.1877    1.8811   -0.9498 H         1 <0>         0.0810
     41 H4          1.3348   -0.1652    1.6893 H         1 <0>         0.1327
     42 H5          1.3711   -2.6233    1.6534 H         1 <0>         0.1276
     43 H6         -1.3082   -2.6259   -1.6780 H         1 <0>         0.1363
     44 H7         -3.4440   -0.6835   -1.1400 H         1 <0>         0.1329
     45 H8         -4.8029    0.5527   -2.7710 H         1 <0>         0.1337
     46 H9         -1.2337    2.1844   -4.5038 H         1 <0>         0.1440
     47 H10         0.9641    0.2213   -3.5257 H         1 <0>         0.0762
     48 H11         0.8274    1.9735   -3.2436 H         1 <0>         0.0743
     49 H12         0.9379    0.8556   -1.8628 H         1 <0>         0.0835
     50 H13        -7.2616    2.5881   -7.0931 H         1 <0>         0.1015
     51 H14        -7.6722    3.2598   -5.4966 H         1 <0>         0.0947
     52 H15        -6.9881    4.3145   -6.7567 H         1 <0>         0.1102
     53 H16         0.1457   -4.6715    0.7977 H         1 <0>         0.4094
     54 H17        -0.0492   -6.4986    0.9282 H         1 <0>         0.1293
     55 H18        -0.2036   -8.9531    0.9001 H         1 <0>         0.1269
     56 H19        -0.3896   -8.9121   -3.3621 H         1 <0>         0.1344
     57 H20        -0.2488   -6.4566   -3.3559 H         1 <0>         0.1424
     58 H21         0.0509  -10.9673   -2.1567 H         1 <0>         0.1011
     59 H22         0.1290  -10.9844   -0.3786 H         1 <0>         0.0599
     60 H23        -1.9030  -11.1378    0.9099 H         1 <0>         0.0620
     61 H24        -2.3156   -9.5356    0.2521 H         1 <0>         0.1261
     62 H25        -4.3399  -10.7304    1.0602 H         1 <0>         0.1359
     63 H26        -4.4073  -10.4564   -0.6973 H         1 <0>         0.1377
     64 H27        -3.5533  -13.8653   -1.5885 H         1 <0>         0.1369
     65 H28        -3.9579  -12.2474   -2.2105 H         1 <0>         0.1381
     66 H29        -1.5278  -12.6752   -2.4005 H         1 <0>         0.1254
     67 H30        -1.4400  -12.9829   -0.6491 H         1 <0>         0.0623
     68 H31        -5.9721  -12.2722   -0.8949 H         1 <0>         0.1233
     69 H32        -5.5464  -13.8828   -0.2679 H         1 <0>         0.1247
     70 H33        -5.8813  -12.5482    0.8612 H         1 <0>         0.1244
     71 H34        -3.5423  -12.9371    0.6125 H         1 <0>         0.4223
@<TRIPOS>BOND
     1    1    2 1
     2    1   38 1
     3    1   39 1
     4    1   40 1
     5    2    7 ar
     6    2    3 ar
     7    3    4 ar
     8    3   41 1
     9    4    5 ar
    10    4   42 1
    11    5    6 ar
    12    5   21 1
    13    6    7 ar
    14    6   43 1
    15    7    8 1
    16    8   13 ar
    17    8    9 ar
    18    9   10 ar
    19    9   44 1
    20   10   11 ar
    21   10   45 1
    22   11   12 ar
    23   11   15 1
    24   12   13 ar
    25   12   46 1
    26   13   14 1
    27   14   47 1
    28   14   48 1
    29   14   49 1
    30   15   19 1
    31   15   16 2
    32   16   17 1
    33   17   18 2
    34   18   19 1
    35   18   20 1
    36   20   50 1
    37   20   51 1
    38   20   52 1
    39   21   22 am
    40   21   53 1
    41   22   23 2
    42   22   24 1
    43   24   29 ar
    44   24   25 ar
    45   25   26 ar
    46   25   54 1
    47   26   27 ar
    48   26   55 1
    49   27   28 ar
    50   27   30 1
    51   28   29 ar
    52   28   56 1
    53   29   57 1
    54   30   31 1
    55   30   58 1
    56   30   59 1
    57   31   36 1
    58   31   32 1
    59   32   33 1
    60   32   60 1
    61   32   61 1
    62   33   34 1
    63   33   62 1
    64   33   63 1
    65   34   35 1
    66   34   37 1
    67   34   71 1
    68   35   36 1
    69   35   64 1
    70   35   65 1
    71   36   66 1
    72   36   67 1
    73   37   68 1
    74   37   69 1
    75   37   70 1
@<TRIPOS>MOLECULE
CHEMBL497350__1
   71    75     0     0     0
SMALL
USER_CHARGES

@<TRIPOS>ATOM
      1 C1         -0.0209    1.5022    0.0585 C.3       1 <0>        -0.1339
      2 C2         -0.0022   -0.0045    0.0322 C.ar      1 <0>        -0.0714
      3 C3          0.7558   -0.7014    0.9520 C.ar      1 <0>        -0.0974
      4 C4          0.7762   -2.0830    0.9319 C.ar      1 <0>        -0.1309
      5 C5          0.0337   -2.7791   -0.0147 C.ar      1 <0>         0.1302
      6 C6         -0.7305   -2.0869   -0.9417 C.ar      1 <0>        -0.0969
      7 C7         -0.7547   -0.6943   -0.9173 C.ar      1 <0>        -0.0317
      8 C8         -1.5741    0.0524   -1.9021 C.ar      1 <0>        -0.0216
      9 C9         -2.9648   -0.0557   -1.8767 C.ar      1 <0>        -0.1019
     10 C10        -3.7264    0.6371   -2.7904 C.ar      1 <0>        -0.0875
     11 C11        -3.1063    1.4490   -3.7432 C.ar      1 <0>        -0.0168
     12 C12        -1.7141    1.5570   -3.7676 C.ar      1 <0>        -0.0652
     13 C13        -0.9543    0.8669   -2.8496 C.ar      1 <0>        -0.0657
     14 C14         0.5477    0.9877   -2.8720 C.3       1 <0>        -0.1313
     15 C15        -3.9227    2.1927   -4.7247 C.2       1 <0>         0.2034
     16 N1         -3.4734    2.9822   -5.6724 N.2       1 <0>        -0.2703
     17 N2         -4.4683    3.4584   -6.3348 N.2       1 <0>        -0.2835
     18 C16        -5.5826    2.9957   -5.8404 C.2       1 <0>         0.1682
     19 O1         -5.2676    2.1823   -4.8177 O.3       1 <0>        -0.2217
     20 C17        -6.9723    3.3113   -6.3306 C.3       1 <0>        -0.0608
     21 N3          0.0577   -4.1774   -0.0324 N.am      1 <0>        -0.6630
     22 C18        -0.0414   -4.8384   -1.2028 C.2       1 <0>         0.5483
     23 O2         -0.0548   -4.2213   -2.2500 O.2       1 <0>        -0.4983
     24 C19        -0.1337   -6.3136   -1.2129 C.ar      1 <0>        -0.0955
     25 C20        -0.1244   -7.0249   -0.0118 C.ar      1 <0>        -0.0833
     26 C21        -0.2108   -8.4016   -0.0284 C.ar      1 <0>        -0.1008
     27 C22        -0.3062   -9.0774   -1.2320 C.ar      1 <0>        -0.1369
     28 C23        -0.3156   -8.3785   -2.4261 C.ar      1 <0>        -0.0963
     29 C24        -0.2365   -7.0012   -2.4234 C.ar      1 <0>        -0.0533
     30 C25        -0.3998  -10.5815   -1.2423 C.3       1 <0>         0.0422
     31 N4         -1.8112  -10.9847   -1.1843 N.4       1 <0>        -0.3857
     32 C26        -2.3870  -10.5667    0.1007 C.3       1 <0>        -0.0078
     33 C27        -3.8623  -10.9698    0.1540 C.3       1 <0>         0.0256
     34 N5         -3.9750  -12.4269   -0.0021 N.3       1 <0>        -0.5430
     35 C28        -3.3801  -12.8632   -1.2733 C.3       1 <0>         0.0239
     36 C29        -1.9089  -12.4444   -1.3149 C.3       1 <0>        -0.0024
     37 C30        -5.3747  -12.8606    0.1004 C.3       1 <0>         0.0192
     38 H1         -0.8231    1.8442    0.7124 H         1 <0>         0.0746
     39 H2          0.9344    1.8710    0.4318 H         1 <0>         0.0725
     40 H3         -0.1877    1.8811   -0.9498 H         1 <0>         0.0816
     41 H4          1.3348   -0.1652    1.6893 H         1 <0>         0.1341
     42 H5          1.3711   -2.6233    1.6534 H         1 <0>         0.1285
     43 H6         -1.3082   -2.6259   -1.6780 H         1 <0>         0.1359
     44 H7         -3.4440   -0.6835   -1.1400 H         1 <0>         0.1329
     45 H8         -4.8029    0.5527   -2.7710 H         1 <0>         0.1341
     46 H9         -1.2337    2.1844   -4.5038 H         1 <0>         0.1443
     47 H10         0.9641    0.2213   -3.5257 H         1 <0>         0.0759
     48 H11         0.8274    1.9735   -3.2436 H         1 <0>         0.0749
     49 H12         0.9379    0.8556   -1.8628 H         1 <0>         0.0831
     50 H13        -7.2616    2.5881   -7.0931 H         1 <0>         0.1018
     51 H14        -7.6722    3.2598   -5.4966 H         1 <0>         0.0951
     52 H15        -6.9881    4.3145   -6.7567 H         1 <0>         0.1106
     53 H16         0.1457   -4.6715    0.7977 H         1 <0>         0.4100
     54 H17        -0.0492   -6.4986    0.9282 H         1 <0>         0.1398
     55 H18        -0.2036   -8.9531    0.9001 H         1 <0>         0.1410
     56 H19        -0.3896   -8.9121   -3.3621 H         1 <0>         0.1413
     57 H20        -0.2488   -6.4566   -3.3559 H         1 <0>         0.1513
     58 H21         0.0509  -10.9673   -2.1567 H         1 <0>         0.1414
     59 H22         0.1290  -10.9844   -0.3786 H         1 <0>         0.1406
     60 H23        -1.8483  -11.0513    0.9150 H         1 <0>         0.1388
     61 H24        -2.3022   -9.4847    0.2021 H         1 <0>         0.1348
     62 H25        -4.2859  -10.6730    1.1135 H         1 <0>         0.1235
     63 H26        -4.4039  -10.4747   -0.6519 H         1 <0>         0.0600
     64 H27        -3.4521  -13.9477   -1.3552 H         1 <0>         0.1250
     65 H28        -3.9139  -12.3992   -2.1028 H         1 <0>         0.0606
     66 H29        -1.4695  -12.7546   -2.2629 H         1 <0>         0.1374
     67 H30        -1.3726  -12.9194   -0.4933 H         1 <0>         0.1394
     68 H31        -5.9625  -12.3789   -0.6809 H         1 <0>         0.0396
     69 H32        -5.4295  -13.9427   -0.0187 H         1 <0>         0.0844
     70 H33        -5.7708  -12.5821    1.0770 H         1 <0>         0.0844
     71 H34        -2.3176  -10.5451   -1.9382 H         1 <0>         0.4207
@<TRIPOS>BOND
     1    1    2 1
     2    1   38 1
     3    1   39 1
     4    1   40 1
     5    2    7 ar
     6    2    3 ar
     7    3    4 ar
     8    3   41 1
     9    4    5 ar
    10    4   42 1
    11    5    6 ar
    12    5   21 1
    13    6    7 ar
    14    6   43 1
    15    7    8 1
    16    8   13 ar
    17    8    9 ar
    18    9   10 ar
    19    9   44 1
    20   10   11 ar
    21   10   45 1
    22   11   12 ar
    23   11   15 1
    24   12   13 ar
    25   12   46 1
    26   13   14 1
    27   14   47 1
    28   14   48 1
    29   14   49 1
    30   15   19 1
    31   15   16 2
    32   16   17 1
    33   17   18 2
    34   18   19 1
    35   18   20 1
    36   20   50 1
    37   20   51 1
    38   20   52 1
    39   21   22 am
    40   21   53 1
    41   22   23 2
    42   22   24 1
    43   24   29 ar
    44   24   25 ar
    45   25   26 ar
    46   25   54 1
    47   26   27 ar
    48   26   55 1
    49   27   28 ar
    50   27   30 1
    51   28   29 ar
    52   28   56 1
    53   29   57 1
    54   30   31 1
    55   30   58 1
    56   30   59 1
    57   31   36 1
    58   31   32 1
    59   31   71 1
    60   32   33 1
    61   32   60 1
    62   32   61 1
    63   33   34 1
    64   33   62 1
    65   33   63 1
    66   34   35 1
    67   34   37 1
    68   35   36 1
    69   35   64 1
    70   35   65 1
    71   36   66 1
    72   36   67 1
    73   37   68 1
    74   37   69 1
    75   37   70 1
@<TRIPOS>MOLECULE
CHEMBL490080
   71    75     0     0     0
SMALL
USER_CHARGES

@<TRIPOS>ATOM
      1 C1          1.1821    1.5131   -0.6233 C.3       1 <0>         0.0007
      2 O1          1.0306    0.0939   -0.5533 O.3       1 <0>        -0.1471
      3 N1          1.5509   -0.4832    0.6305 N.am      1 <0>        -0.5873
      4 C2          1.4721   -1.8150    0.8220 C.2       1 <0>         0.5961
      5 O2          0.8750   -2.5102    0.0221 O.2       1 <0>        -0.5343
      6 C3          2.1084   -2.4279    1.9986 C.2       1 <0>        -0.3169
      7 C4          2.1353   -3.7975    2.1467 C.2       1 <0>         0.2566
      8 N2          2.7061   -4.3939    3.2056 N.pl3     1 <0>        -0.4648
      9 C5          3.3045   -3.6907    4.2186 C.ar      1 <0>         0.4694
     10 C6          3.3413   -2.2817    4.1801 C.ar      1 <0>        -0.3333
     11 C7          2.7330   -1.5876    3.0358 C.2       1 <0>         0.4537
     12 O3          2.7408   -0.3719    2.9510 O.2       1 <0>        -0.4839
     13 C8          3.9573   -1.5894    5.2235 C.ar      1 <0>         0.2845
     14 N3          4.4864   -2.2855    6.2147 N.ar      1 <0>        -0.5731
     15 C9          4.4359   -3.6128    6.2227 C.ar      1 <0>         0.6102
     16 N4          3.8612   -4.3095    5.2539 N.ar      1 <0>        -0.5927
     17 N5          5.0046   -4.2927    7.2821 N.pl3     1 <0>        -0.6297
     18 C10         5.5209   -3.5840    8.3712 C.ar      1 <0>         0.1797
     19 C11         4.9247   -2.3960    8.7743 C.ar      1 <0>        -0.1080
     20 C12         5.4373   -1.6985    9.8505 C.ar      1 <0>        -0.0865
     21 C13         6.5430   -2.1814   10.5261 C.ar      1 <0>        -0.1255
     22 C14         7.1389   -3.3638   10.1273 C.ar      1 <0>        -0.0850
     23 C15         6.6277   -4.0694    9.0558 C.ar      1 <0>        -0.1418
     24 C16         7.1002   -1.4170   11.6993 C.3       1 <0>        -0.0955
     25 C17         6.4238   -1.8938   12.9862 C.3       1 <0>        -0.0027
     26 N6          6.9669   -1.1487   14.1299 N.4       1 <0>        -0.3953
     27 C18         6.5395    0.2723   14.0649 C.3       1 <0>        -0.0079
     28 C19         6.6814    0.7525   15.5311 C.3       1 <0>        -0.1461
     29 C20         6.2284   -0.4817   16.3445 C.3       1 <0>        -0.1457
     30 C21         6.4121   -1.6793   15.3941 C.3       1 <0>        -0.0084
     31 C22         2.6881   -5.8568    3.2816 C.3       1 <0>         0.1167
     32 C23         3.4158   -6.4396    2.0685 C.3       1 <0>        -0.1347
     33 C24         3.3970   -7.9674    2.1479 C.3       1 <0>        -0.1138
     34 C25         1.9485   -8.4598    2.1587 C.3       1 <0>        -0.1276
     35 C26         1.2208   -7.8770    3.3719 C.3       1 <0>        -0.1138
     36 C27         1.2395   -6.3492    3.2924 C.3       1 <0>        -0.1344
     37 H1          2.2409    1.7681   -0.5796 H         1 <0>         0.0564
     38 H2          0.7588    1.8780   -1.5591 H         1 <0>         0.1143
     39 H3          0.6620    1.9758    0.2155 H         1 <0>         0.0565
     40 H4          1.9639    0.0800    1.3036 H         1 <0>         0.4190
     41 H5          1.6810   -4.4130    1.3843 H         1 <0>         0.1911
     42 H6          4.0010   -0.5103    5.2209 H         1 <0>         0.1939
     43 H7          5.0457   -5.2617    7.2705 H         1 <0>         0.4292
     44 H8          4.0616   -2.0180    8.2467 H         1 <0>         0.1421
     45 H9          4.9742   -0.7747   10.1645 H         1 <0>         0.1273
     46 H10         8.0024   -3.7382   10.6571 H         1 <0>         0.1286
     47 H11         7.0906   -4.9953    8.7479 H         1 <0>         0.1321
     48 H12         8.1743   -1.5892   11.7681 H         1 <0>         0.0933
     49 H13         6.9109   -0.3524   11.5623 H         1 <0>         0.0934
     50 H14         5.3497   -1.7217   12.9175 H         1 <0>         0.1300
     51 H15         6.6131   -2.9585   13.1233 H         1 <0>         0.1303
     52 H16         7.1969    0.8421   13.4082 H         1 <0>         0.1356
     53 H17         5.5038    0.3478   13.7339 H         1 <0>         0.1338
     54 H18         7.7179    1.0035   15.7562 H         1 <0>         0.0979
     55 H19         6.0270    1.6027   15.7236 H         1 <0>         0.1162
     56 H20         6.8532   -0.6017   17.2295 H         1 <0>         0.1047
     57 H21         5.1812   -0.3827   16.6304 H         1 <0>         0.1033
     58 H22         5.4497   -2.1554   15.2063 H         1 <0>         0.1300
     59 H23         7.1057   -2.3974   15.8315 H         1 <0>         0.1316
     60 H24         3.1883   -6.1793    4.1948 H         1 <0>         0.1281
     61 H25         2.9156   -6.1170    1.1553 H         1 <0>         0.0763
     62 H26         4.4478   -6.0888    2.0608 H         1 <0>         0.0730
     63 H27         3.9155   -8.3825    1.2836 H         1 <0>         0.0750
     64 H28         3.8972   -8.2899    3.0611 H         1 <0>         0.0672
     65 H29         1.4483   -8.1372    1.2455 H         1 <0>         0.0689
     66 H30         1.9351   -9.5482    2.2153 H         1 <0>         0.0712
     67 H31         0.1888   -8.2278    3.3795 H         1 <0>         0.0749
     68 H32         1.7210   -8.1995    4.2850 H         1 <0>         0.0671
     69 H33         0.7211   -5.9340    4.1567 H         1 <0>         0.0727
     70 H34         0.7394   -6.0267    2.3792 H         1 <0>         0.0766
     71 H35         7.9740   -1.2101   14.1390 H         1 <0>         0.4264
@<TRIPOS>BOND
     1    1    2 1
     2    1   37 1
     3    1   38 1
     4    1   39 1
     5    2    3 1
     6    3    4 am
     7    3   40 1
     8    4    5 2
     9    4    6 1
    10    6   11 1
    11    6    7 2
    12    7    8 1
    13    7   41 1
    14    8    9 1
    15    8   31 1
    16    9   16 ar
    17    9   10 ar
    18   10   11 1
    19   10   13 ar
    20   11   12 2
    21   13   14 ar
    22   13   42 1
    23   14   15 ar
    24   15   16 ar
    25   15   17 1
    26   17   18 1
    27   17   43 1
    28   18   23 ar
    29   18   19 ar
    30   19   20 ar
    31   19   44 1
    32   20   21 ar
    33   20   45 1
    34   21   22 ar
    35   21   24 1
    36   22   23 ar
    37   22   46 1
    38   23   47 1
    39   24   25 1
    40   24   48 1
    41   24   49 1
    42   25   26 1
    43   25   50 1
    44   25   51 1
    45   26   30 1
    46   26   27 1
    47   26   71 1
    48   27   28 1
    49   27   52 1
    50   27   53 1
    51   28   29 1
    52   28   54 1
    53   28   55 1
    54   29   30 1
    55   29   56 1
    56   29   57 1
    57   30   58 1
    58   30   59 1
    59   31   36 1
    60   31   32 1
    61   31   60 1
    62   32   33 1
    63   32   61 1
    64   32   62 1
    65   33   34 1
    66   33   63 1
    67   33   64 1
    68   34   35 1
    69   34   65 1
    70   34   66 1
    71   35   36 1
    72   35   67 1
    73   35   68 1
    74   36   69 1
    75   36   70 1
@<TRIPOS>MOLECULE
CHEMBL481231
   65    68     0     0     0
SMALL
USER_CHARGES

@<TRIPOS>ATOM
      1 C1         -9.8883   -2.5920    5.0831 C.3       1 <0>        -0.0460
      2 N1         -8.7144   -3.3478    4.6263 N.4       1 <0>        -0.3886
      3 C2         -9.1549   -4.5097    3.8430 C.3       1 <0>        -0.0026
      4 C3         -7.9318   -5.2868    3.3511 C.3       1 <0>         0.0254
      5 N2         -7.1368   -5.7261    4.5065 N.3       1 <0>        -0.5383
      6 C4         -6.7095   -4.5748    5.3141 C.3       1 <0>         0.0188
      7 C5         -7.9426   -3.8036    5.7899 C.3       1 <0>        -0.0028
      8 C6         -5.9816   -6.5257    4.0773 C.3       1 <0>         0.0581
      9 C7         -5.3245   -7.1695    5.2998 C.3       1 <0>        -0.1177
     10 C8         -4.1214   -8.0024    4.8528 C.3       1 <0>         0.0535
     11 O1         -3.5076   -8.6037    5.9946 O.3       1 <0>        -0.2941
     12 C9         -2.4171   -9.3820    5.7704 C.ar      1 <0>         0.1536
     13 C10        -1.9543   -9.5518    4.4849 C.ar      1 <0>        -0.1750
     14 C11        -0.8283  -10.3551    4.2508 C.ar      1 <0>         0.1633
     15 C12        -0.1859  -10.9790    5.3472 C.ar      1 <0>        -0.1027
     16 C13        -0.6771  -10.7894    6.6469 C.ar      1 <0>        -0.1536
     17 C14        -1.7715   -9.9989    6.8507 C.ar      1 <0>         0.1234
     18 O2         -2.2427   -9.8127    8.1127 O.3       1 <0>        -0.3007
     19 C15        -1.5407  -10.4686    9.1706 C.3       1 <0>         0.0212
     20 C16         0.9495  -11.7884    5.1077 C.ar      1 <0>         0.2784
     21 C17         1.3833  -11.9313    3.7806 C.ar      1 <0>        -0.2061
     22 C18         0.6843  -11.2748    2.7547 C.ar      1 <0>         0.1660
     23 N3         -0.3628  -10.5318    3.0049 N.ar      1 <0>        -0.4700
     24 C19         2.5585  -12.7597    3.4676 C.2       1 <0>         0.5649
     25 O3          3.0993  -13.4047    4.3458 O.2       1 <0>        -0.5145
     26 N4          3.0357  -12.8038    2.2079 N.am      1 <0>        -0.8492
     27 N5          1.6082  -12.4158    6.1437 N.pl3     1 <0>        -0.6862
     28 C20         1.2722  -13.7275    6.4937 C.ar      1 <0>         0.2347
     29 C21         0.3775  -14.4482    5.7127 C.ar      1 <0>        -0.1502
     30 C22         0.0471  -15.7435    6.0594 C.ar      1 <0>        -0.0939
     31 C23         0.6067  -16.3247    7.1847 C.ar      1 <0>         0.0596
     32 C24         1.4991  -15.6080    7.9658 C.ar      1 <0>        -0.0262
     33 C25         1.8368  -14.3132    7.6190 C.ar      1 <0>        -0.1469
     34 Cl1         2.1984  -16.3388    9.3767 Cl        1 <0>        -0.0432
     35 F1          0.2820  -17.5920    7.5218 F         1 <0>        -0.1294
     36 H1         -9.5616   -1.7290    5.6632 H         1 <0>         0.1245
     37 H2        -10.4611   -2.2537    4.2197 H         1 <0>         0.1245
     38 H3        -10.5132   -3.2326    5.7054 H         1 <0>         0.1235
     39 H4         -9.7695   -5.1574    4.4682 H         1 <0>         0.1383
     40 H5         -9.7384   -4.1708    2.9871 H         1 <0>         0.1366
     41 H6         -8.2587   -6.1574    2.7824 H         1 <0>         0.1249
     42 H7         -7.3240   -4.6436    2.7148 H         1 <0>         0.0618
     43 H8         -6.1446   -4.9260    6.1777 H         1 <0>         0.1268
     44 H9         -6.0816   -3.9198    4.7102 H         1 <0>         0.0622
     45 H10        -7.6275   -2.9412    6.3773 H         1 <0>         0.1363
     46 H11        -8.5635   -4.4549    6.4051 H         1 <0>         0.1384
     47 H12        -6.3138   -7.3046    3.3910 H         1 <0>         0.0941
     48 H13        -5.2605   -5.8815    3.5742 H         1 <0>         0.0519
     49 H14        -4.9923   -6.3906    5.9862 H         1 <0>         0.0767
     50 H15        -6.0456   -7.8138    5.8029 H         1 <0>         0.0905
     51 H16        -4.4536   -8.7813    4.1664 H         1 <0>         0.0718
     52 H17        -3.4003   -7.3582    4.3497 H         1 <0>         0.0681
     53 H18        -2.4566   -9.0688    3.6598 H         1 <0>         0.1532
     54 H19        -0.1888  -11.2644    7.4849 H         1 <0>         0.1500
     55 H20        -2.0190  -10.2371   10.1223 H         1 <0>         0.1082
     56 H21        -1.5604  -11.5460    9.0066 H         1 <0>         0.0612
     57 H22        -0.5071  -10.1228    9.1898 H         1 <0>         0.0597
     58 H23         1.0196  -11.3859    1.7341 H         1 <0>         0.1662
     59 H24         2.6045  -12.2895    1.5076 H         1 <0>         0.4000
     60 H25         3.8104  -13.3499    2.0016 H         1 <0>         0.4103
     61 H26         2.3047  -11.9474    6.6299 H         1 <0>         0.4192
     62 H27        -0.0598  -13.9956    4.8350 H         1 <0>         0.1274
     63 H28        -0.6488  -16.3036    5.4524 H         1 <0>         0.1450
     64 H29         2.5358  -13.7561    8.2252 H         1 <0>         0.1435
     65 H30        -8.1358   -2.7545    4.0507 H         1 <0>         0.4224
@<TRIPOS>BOND
     1    1    2 1
     2    1   36 1
     3    1   37 1
     4    1   38 1
     5    2    7 1
     6    2    3 1
     7    2   65 1
     8    3    4 1
     9    3   39 1
    10    3   40 1
    11    4    5 1
    12    4   41 1
    13    4   42 1
    14    5    6 1
    15    5    8 1
    16    6    7 1
    17    6   43 1
    18    6   44 1
    19    7   45 1
    20    7   46 1
    21    8    9 1
    22    8   47 1
    23    8   48 1
    24    9   10 1
    25    9   49 1
    26    9   50 1
    27   10   11 1
    28   10   51 1
    29   10   52 1
    30   11   12 1
    31   12   17 ar
    32   12   13 ar
    33   13   14 ar
    34   13   53 1
    35   14   23 ar
    36   14   15 ar
    37   15   16 ar
    38   15   20 ar
    39   16   17 ar
    40   16   54 1
    41   17   18 1
    42   18   19 1
    43   19   55 1
    44   19   56 1
    45   19   57 1
    46   20   21 ar
    47   20   27 1
    48   21   22 ar
    49   21   24 1
    50   22   23 ar
    51   22   58 1
    52   24   25 2
    53   24   26 am
    54   26   59 1
    55   26   60 1
    56   27   28 1
    57   27   61 1
    58   28   33 ar
    59   28   29 ar
    60   29   30 ar
    61   29   62 1
    62   30   31 ar
    63   30   63 1
    64   31   32 ar
    65   31   35 1
    66   32   33 ar
    67   32   34 1
    68   33   64 1
@<TRIPOS>MOLECULE
CHEMBL481231__1
   65    68     0     0     0
SMALL
USER_CHARGES

@<TRIPOS>ATOM
      1 C1         -9.6189   -3.0857    5.1364 C.3       1 <0>         0.0192
      2 N1         -8.4659   -3.8567    4.6526 N.3       1 <0>        -0.5439
      3 C2         -8.8931   -4.9261    3.7394 C.3       1 <0>         0.0238
      4 C3         -7.6612   -5.6656    3.2128 C.3       1 <0>        -0.0017
      5 N2         -6.9108   -6.2324    4.3411 N.4       1 <0>        -0.3854
      6 C4         -6.4698   -5.1504    5.2311 C.3       1 <0>        -0.0084
      7 C5         -7.6918   -4.4066    5.7745 C.3       1 <0>         0.0245
      8 C6         -5.7381   -6.9575    3.8339 C.3       1 <0>        -0.0050
      9 C7         -5.0260   -7.6521    4.9964 C.3       1 <0>        -0.1503
     10 C8         -3.8046   -8.4072    4.4682 C.3       1 <0>         0.0567
     11 O1         -3.1395   -9.0560    5.5539 O.3       1 <0>        -0.2938
     12 C9         -2.0269   -9.7753    5.2542 C.ar      1 <0>         0.1490
     13 C10        -1.5915   -9.8446    3.9499 C.ar      1 <0>        -0.1708
     14 C11        -0.4428  -10.5868    3.6379 C.ar      1 <0>         0.1610
     15 C12         0.2507  -11.2541    4.6762 C.ar      1 <0>        -0.1008
     16 C13        -0.2135  -11.1672    5.9966 C.ar      1 <0>        -0.1503
     17 C14        -1.3310  -10.4345    6.2769 C.ar      1 <0>         0.1230
     18 O2         -1.7759  -10.3478    7.5589 O.3       1 <0>        -0.3021
     19 C15        -1.0228  -11.0421    8.5553 C.3       1 <0>         0.0208
     20 C16         1.4088  -12.0017    4.3581 C.ar      1 <0>         0.2793
     21 C17         1.8132  -12.0425    3.0148 C.ar      1 <0>        -0.2028
     22 C18         1.0639  -11.3495    2.0503 C.ar      1 <0>         0.1681
     23 N3         -0.0034  -10.6652    2.3726 N.ar      1 <0>        -0.4703
     24 C19         3.0100  -12.8028    2.6213 C.2       1 <0>         0.5640
     25 O3          3.5971  -13.4811    3.4428 O.2       1 <0>        -0.5129
     26 N4          3.4557  -12.7478    1.3505 N.am      1 <0>        -0.8485
     27 N5          2.1171  -12.6679    5.3356 N.pl3     1 <0>        -0.6870
     28 C20         1.8394  -14.0114    5.6075 C.ar      1 <0>         0.2332
     29 C21         0.9523  -14.7150    4.8026 C.ar      1 <0>        -0.1506
     30 C22         0.6796  -16.0417    5.0722 C.ar      1 <0>        -0.0941
     31 C23         1.2895  -16.6713    6.1440 C.ar      1 <0>         0.0608
     32 C24         2.1744  -15.9719    6.9488 C.ar      1 <0>        -0.0264
     33 C25         2.4545  -14.6454    6.6790 C.ar      1 <0>        -0.1459
     34 Cl1         2.9367  -16.7636    8.2926 Cl        1 <0>        -0.0418
     35 F1          1.0210  -17.9693    6.4057 F         1 <0>        -0.1288
     36 H1         -9.2696   -2.2609    5.7575 H         1 <0>         0.0847
     37 H2        -10.1741   -2.6902    4.2859 H         1 <0>         0.0843
     38 H3        -10.2684   -3.7339    5.7247 H         1 <0>         0.0400
     39 H4         -9.5362   -5.6254    4.2737 H         1 <0>         0.0610
     40 H5         -9.4421   -4.4927    2.9034 H         1 <0>         0.1248
     41 H6         -7.9766   -6.4683    2.5463 H         1 <0>         0.1373
     42 H7         -7.0251   -4.9689    2.6668 H         1 <0>         0.1391
     43 H8         -5.9020   -5.5712    6.0609 H         1 <0>         0.1379
     44 H9         -5.8398   -4.4563    4.6748 H         1 <0>         0.1395
     45 H10        -7.3643   -3.5942    6.4232 H         1 <0>         0.1244
     46 H11        -8.3151   -5.0974    6.3424 H         1 <0>         0.0612
     47 H12        -6.0587   -7.7033    3.1065 H         1 <0>         0.1369
     48 H13        -5.0548   -6.2549    3.3570 H         1 <0>         0.1363
     49 H14        -4.7054   -6.9063    5.7238 H         1 <0>         0.1006
     50 H15        -5.7093   -8.3547    5.4734 H         1 <0>         0.1005
     51 H16        -4.1252   -9.1530    3.7408 H         1 <0>         0.0783
     52 H17        -3.1213   -7.7046    3.9912 H         1 <0>         0.0784
     53 H18        -2.1326   -9.3297    3.1699 H         1 <0>         0.1529
     54 H19         0.3138  -11.6754    6.7904 H         1 <0>         0.1513
     55 H20        -1.4846  -10.8907    9.5310 H         1 <0>         0.1093
     56 H21        -1.0065  -12.1068    8.3223 H         1 <0>         0.0619
     57 H22        -0.0027  -10.6584    8.5727 H         1 <0>         0.0609
     58 H23         1.3766  -11.3820    1.0170 H         1 <0>         0.1676
     59 H24         2.9876  -12.2069    0.6954 H         1 <0>         0.4000
     60 H25         4.2446  -13.2490    1.0911 H         1 <0>         0.4112
     61 H26         2.8080  -12.2048    5.8347 H         1 <0>         0.4198
     62 H27         0.4759  -14.2245    3.9666 H         1 <0>         0.1269
     63 H28        -0.0104  -16.5885    4.4466 H         1 <0>         0.1451
     64 H29         3.1476  -14.1014    7.3035 H         1 <0>         0.1439
     65 H30        -7.5034   -6.8685    4.8532 H         1 <0>         0.4221
@<TRIPOS>BOND
     1    1    2 1
     2    1   36 1
     3    1   37 1
     4    1   38 1
     5    2    7 1
     6    2    3 1
     7    3    4 1
     8    3   39 1
     9    3   40 1
    10    4    5 1
    11    4   41 1
    12    4   42 1
    13    5    6 1
    14    5    8 1
    15    5   65 1
    16    6    7 1
    17    6   43 1
    18    6   44 1
    19    7   45 1
    20    7   46 1
    21    8    9 1
    22    8   47 1
    23    8   48 1
    24    9   10 1
    25    9   49 1
    26    9   50 1
    27   10   11 1
    28   10   51 1
    29   10   52 1
    30   11   12 1
    31   12   17 ar
    32   12   13 ar
    33   13   14 ar
    34   13   53 1
    35   14   23 ar
    36   14   15 ar
    37   15   16 ar
    38   15   20 ar
    39   16   17 ar
    40   16   54 1
    41   17   18 1
    42   18   19 1
    43   19   55 1
    44   19   56 1
    45   19   57 1
    46   20   21 ar
    47   20   27 1
    48   21   22 ar
    49   21   24 1
    50   22   23 ar
    51   22   58 1
    52   24   25 2
    53   24   26 am
    54   26   59 1
    55   26   60 1
    56   27   28 1
    57   27   61 1
    58   28   33 ar
    59   28   29 ar
    60   29   30 ar
    61   29   62 1
    62   30   31 ar
    63   30   63 1
    64   31   32 ar
    65   31   35 1
    66   32   33 ar
    67   32   34 1
    68   33   64 1
@<TRIPOS>MOLECULE
CHEMBL481231__2
   66    69     0     0     0
SMALL
USER_CHARGES

@<TRIPOS>ATOM
      1 C1         -9.8883   -2.5920    5.0831 C.3       1 <0>        -0.0470
      2 N1         -8.7144   -3.3478    4.6263 N.4       1 <0>        -0.3886
      3 C2         -9.1549   -4.5097    3.8430 C.3       1 <0>        -0.0037
      4 C3         -7.9318   -5.2868    3.3511 C.3       1 <0>         0.0265
      5 N2         -7.1368   -5.7261    4.5065 N.3       1 <0>        -0.5387
      6 C4         -6.7095   -4.5748    5.3141 C.3       1 <0>         0.0196
      7 C5         -7.9426   -3.8036    5.7899 C.3       1 <0>        -0.0037
      8 C6         -5.9816   -6.5257    4.0773 C.3       1 <0>         0.0590
      9 C7         -5.3245   -7.1695    5.2998 C.3       1 <0>        -0.1223
     10 C8         -4.1214   -8.0024    4.8528 C.3       1 <0>         0.0471
     11 O1         -3.5076   -8.6037    5.9946 O.3       1 <0>        -0.2727
     12 C9         -2.4171   -9.3820    5.7704 C.ar      1 <0>         0.2228
     13 C10        -1.9543   -9.5518    4.4849 C.ar      1 <0>        -0.2334
     14 C11        -0.8283  -10.3551    4.2508 C.ar      1 <0>         0.1723
     15 C12        -0.1859  -10.9790    5.3472 C.ar      1 <0>        -0.0831
     16 C13        -0.6771  -10.7894    6.6469 C.ar      1 <0>        -0.1351
     17 C14        -1.7715   -9.9989    6.8507 C.ar      1 <0>         0.1455
     18 O2         -2.2427   -9.8127    8.1127 O.3       1 <0>        -0.2840
     19 C15        -1.5407  -10.4686    9.1706 C.3       1 <0>         0.0124
     20 C16         0.9495  -11.7884    5.1077 C.ar      1 <0>         0.3869
     21 C17         1.3833  -11.9313    3.7806 C.ar      1 <0>        -0.2023
     22 C18         0.6843  -11.2748    2.7547 C.ar      1 <0>         0.2262
     23 N3         -0.3628  -10.5318    3.0049 N.ar      1 <0>        -0.4558
     24 C19         2.5585  -12.7597    3.4676 C.2       1 <0>         0.5654
     25 O3          3.0993  -13.4047    4.3458 O.2       1 <0>        -0.4823
     26 N4          3.0357  -12.8038    2.2079 N.am      1 <0>        -0.8411
     27 N5          1.6082  -12.4158    6.1437 N.pl3     1 <0>        -0.6997
     28 C20         1.2722  -13.7275    6.4937 C.ar      1 <0>         0.2082
     29 C21         0.3775  -14.4482    5.7127 C.ar      1 <0>        -0.1508
     30 C22         0.0471  -15.7435    6.0594 C.ar      1 <0>        -0.0947
     31 C23         0.6067  -16.3247    7.1847 C.ar      1 <0>         0.0825
     32 C24         1.4991  -15.6080    7.9658 C.ar      1 <0>        -0.0298
     33 C25         1.8368  -14.3132    7.6190 C.ar      1 <0>        -0.1276
     34 Cl1         2.1984  -16.3388    9.3767 Cl        1 <0>        -0.0245
     35 F1          0.2820  -17.5920    7.5218 F         1 <0>        -0.1197
     36 H1         -9.5616   -1.7290    5.6632 H         1 <0>         0.1261
     37 H2        -10.4611   -2.2537    4.2197 H         1 <0>         0.1263
     38 H3        -10.5132   -3.2326    5.7054 H         1 <0>         0.1246
     39 H4         -9.7695   -5.1574    4.4682 H         1 <0>         0.1393
     40 H5         -9.7384   -4.1708    2.9871 H         1 <0>         0.1389
     41 H6         -8.2587   -6.1574    2.7824 H         1 <0>         0.1251
     42 H7         -7.3240   -4.6436    2.7148 H         1 <0>         0.0626
     43 H8         -6.1446   -4.9260    6.1777 H         1 <0>         0.1253
     44 H9         -6.0816   -3.9198    4.7102 H         1 <0>         0.0627
     45 H10        -7.6275   -2.9412    6.3773 H         1 <0>         0.1381
     46 H11        -8.5635   -4.4549    6.4051 H         1 <0>         0.1393
     47 H12        -6.3138   -7.3046    3.3910 H         1 <0>         0.0938
     48 H13        -5.2605   -5.8815    3.5742 H         1 <0>         0.0514
     49 H14        -4.9923   -6.3906    5.9862 H         1 <0>         0.0824
     50 H15        -6.0456   -7.8138    5.8029 H         1 <0>         0.0962
     51 H16        -4.4536   -8.7813    4.1664 H         1 <0>         0.0800
     52 H17        -3.4003   -7.3582    4.3497 H         1 <0>         0.0764
     53 H18        -2.4566   -9.0688    3.6598 H         1 <0>         0.1711
     54 H19        -0.1888  -11.2644    7.4849 H         1 <0>         0.1747
     55 H20        -1.5604  -11.5460    9.0066 H         1 <0>         0.0707
     56 H21        -0.5071  -10.1228    9.1898 H         1 <0>         0.0696
     57 H22        -2.0190  -10.2371   10.1223 H         1 <0>         0.1225
     58 H23         1.0196  -11.3859    1.7341 H         1 <0>         0.2140
     59 H24         2.6045  -12.2895    1.5076 H         1 <0>         0.3980
     60 H25         3.8104  -13.3499    2.0016 H         1 <0>         0.4245
     61 H26         2.3047  -11.9474    6.6299 H         1 <0>         0.4347
     62 H27        -0.0598  -13.9956    4.8350 H         1 <0>         0.1224
     63 H28        -0.6488  -16.3036    5.4524 H         1 <0>         0.1512
     64 H29         2.5358  -13.7561    8.2252 H         1 <0>         0.1506
     65 H30        -8.1358   -2.7545    4.0507 H         1 <0>         0.4226
     66 H31        -0.8170  -10.0957    2.2671 H         1 <0>         0.4515
@<TRIPOS>BOND
     1    1    2 1
     2    1   36 1
     3    1   37 1
     4    1   38 1
     5    2    7 1
     6    2    3 1
     7    2   65 1
     8    3    4 1
     9    3   39 1
    10    3   40 1
    11    4    5 1
    12    4   41 1
    13    4   42 1
    14    5    6 1
    15    5    8 1
    16    6    7 1
    17    6   43 1
    18    6   44 1
    19    7   45 1
    20    7   46 1
    21    8    9 1
    22    8   47 1
    23    8   48 1
    24    9   10 1
    25    9   49 1
    26    9   50 1
    27   10   11 1
    28   10   51 1
    29   10   52 1
    30   11   12 1
    31   12   17 ar
    32   12   13 ar
    33   13   14 ar
    34   13   53 1
    35   14   23 ar
    36   14   15 ar
    37   15   16 ar
    38   15   20 ar
    39   16   17 ar
    40   16   54 1
    41   17   18 1
    42   18   19 1
    43   19   55 1
    44   19   56 1
    45   19   57 1
    46   20   21 ar
    47   20   27 1
    48   21   22 ar
    49   21   24 1
    50   22   23 ar
    51   22   58 1
    52   23   66 1
    53   24   25 2
    54   24   26 am
    55   26   59 1
    56   26   60 1
    57   27   28 1
    58   27   61 1
    59   28   33 ar
    60   28   29 ar
    61   29   30 ar
    62   29   62 1
    63   30   31 ar
    64   30   63 1
    65   31   32 ar
    66   31   35 1
    67   32   33 ar
    68   32   34 1
    69   33   64 1
@<TRIPOS>MOLECULE
CHEMBL402337
   56    59     0     0     0
SMALL
USER_CHARGES

@<TRIPOS>ATOM
      1 C1         -0.0374    1.5198    0.0292 C.3       1 <0>        -0.1470
      2 C2         -0.0124   -0.0099    0.0141 C.3       1 <0>        -0.0953
      3 C3         -1.4480   -0.5491    0.0399 C.3       1 <0>        -0.1115
      4 C4         -1.4013   -2.0642   -0.1683 C.3       1 <0>        -0.0738
      5 C5         -0.4034   -2.6837    0.7662 C.2       1 <0>        -0.1040
      6 C6          0.5326   -2.0073    1.3884 C.2       1 <0>        -0.1131
      7 C7          0.7217   -0.5244    1.2541 C.3       1 <0>        -0.0859
      8 C8         -0.4801   -4.1401    0.9993 C.ar      1 <0>        -0.0759
      9 C9         -1.4884   -4.6692    1.8050 C.ar      1 <0>        -0.0777
     10 C10        -1.5554   -6.0305    2.0188 C.ar      1 <0>        -0.1326
     11 C11        -0.6258   -6.8756    1.4369 C.ar      1 <0>        -0.0968
     12 C12         0.3780   -6.3648    0.6372 C.ar      1 <0>        -0.1233
     13 C13         0.4563   -4.9987    0.4072 C.ar      1 <0>         0.1923
     14 N1          1.4662   -4.4814   -0.4051 N.am      1 <0>        -0.6648
     15 C14         2.6880   -5.0503   -0.4060 C.2       1 <0>         0.6305
     16 O1          2.8879   -6.0624    0.2375 O.2       1 <0>        -0.5322
     17 C15         3.7837   -4.4445   -1.1884 C.2       1 <0>         0.0437
     18 N2          5.0555   -4.9258   -1.2740 N.2       1 <0>        -0.4607
     19 C16         5.7513   -4.0752   -2.0950 C.2       1 <0>        -0.0333
     20 C17         4.8616   -3.0920   -2.4846 C.2       1 <0>        -0.0103
     21 N3          3.6889   -3.3545   -1.9214 N.2       1 <0>        -0.5192
     22 C18         7.1282   -4.1841   -2.4732 C.1       1 <0>         0.3295
     23 N4          8.2204   -4.2705   -2.7732 N.1       1 <0>        -0.4804
     24 C19        -2.6451   -6.6002    2.8901 C.3       1 <0>        -0.0442
     25 C20        -2.0186   -7.3456    4.0720 C.3       1 <0>        -0.1442
     26 C21        -3.1273   -7.9884    4.9081 C.3       1 <0>        -0.0065
     27 N5         -3.8856   -8.9326    4.0787 N.4       1 <0>        -0.5056
     28 C22        -4.5481   -8.2133    2.9841 C.3       1 <0>        -0.0066
     29 C23        -3.4940   -7.5792    2.0739 C.3       1 <0>        -0.1431
     30 H1          0.9842    1.8999    0.0286 H         1 <0>         0.0568
     31 H2         -0.5608    1.8834   -0.8551 H         1 <0>         0.0550
     32 H3         -0.5534    1.8659    0.9248 H         1 <0>         0.0518
     33 H4          0.4969   -0.3590   -0.8842 H         1 <0>         0.0790
     34 H5         -1.9058   -0.3257    1.0036 H         1 <0>         0.0615
     35 H6         -2.0271   -0.0872   -0.7597 H         1 <0>         0.0659
     36 H7         -2.3876   -2.4860    0.0250 H         1 <0>         0.0669
     37 H8         -1.1141   -2.2788   -1.1976 H         1 <0>         0.0738
     38 H9          1.2066   -2.5492    2.0353 H         1 <0>         0.1022
     39 H10         1.7850   -0.3026    1.1625 H         1 <0>         0.0775
     40 H11         0.3261   -0.0279    2.1402 H         1 <0>         0.0736
     41 H12        -2.2155   -4.0139    2.2614 H         1 <0>         0.1217
     42 H13        -0.6857   -7.9400    1.6095 H         1 <0>         0.1149
     43 H14         1.0999   -7.0299    0.1868 H         1 <0>         0.1454
     44 H15         1.2888   -3.7124   -0.9690 H         1 <0>         0.4212
     45 H16         5.0810   -2.2590   -3.1360 H         1 <0>         0.1454
     46 H17        -3.2757   -5.7919    3.2603 H         1 <0>         0.0913
     47 H18        -1.3480   -8.1201    3.6997 H         1 <0>         0.0916
     48 H19        -1.4578   -6.6436    4.6891 H         1 <0>         0.1140
     49 H20        -2.6847   -8.5198    5.7506 H         1 <0>         0.1316
     50 H21        -3.7970   -7.2131    5.2801 H         1 <0>         0.1292
     51 H22        -3.2566   -9.6218    3.6948 H         1 <0>         0.4280
     52 H23        -5.1544   -8.9107    2.4061 H         1 <0>         0.1313
     53 H24        -5.1875   -7.4332    3.3971 H         1 <0>         0.1291
     54 H25        -3.9879   -7.0441    1.2628 H         1 <0>         0.1137
     55 H26        -2.8541   -8.3585    1.6601 H         1 <0>         0.0911
     56 H27        -4.5810   -9.3938    4.6461 H         1 <0>         0.4286
@<TRIPOS>BOND
     1    1    2 1
     2    1   30 1
     3    1   31 1
     4    1   32 1
     5    2    7 1
     6    2    3 1
     7    2   33 1
     8    3    4 1
     9    3   34 1
    10    3   35 1
    11    4    5 1
    12    4   36 1
    13    4   37 1
    14    5    6 2
    15    5    8 1
    16    6    7 1
    17    6   38 1
    18    7   39 1
    19    7   40 1
    20    8   13 ar
    21    8    9 ar
    22    9   10 ar
    23    9   41 1
    24   10   11 ar
    25   10   24 1
    26   11   12 ar
    27   11   42 1
    28   12   13 ar
    29   12   43 1
    30   13   14 1
    31   14   15 am
    32   14   44 1
    33   15   16 2
    34   15   17 1
    35   17   21 2
    36   17   18 1
    37   18   19 1
    38   19   20 2
    39   19   22 1
    40   20   21 1
    41   20   45 1
    42   22   23 3
    43   24   29 1
    44   24   25 1
    45   24   46 1
    46   25   26 1
    47   25   47 1
    48   25   48 1
    49   26   27 1
    50   26   49 1
    51   26   50 1
    52   27   28 1
    53   27   51 1
    54   27   56 1
    55   28   29 1
    56   28   52 1
    57   28   53 1
    58   29   54 1
    59   29   55 1
@<TRIPOS>MOLECULE
CHEMBL402337__1
   57    60     0     0     0
SMALL
USER_CHARGES

@<TRIPOS>ATOM
      1 C1         -0.0374    1.5198    0.0292 C.3       1 <0>        -0.1501
      2 C2         -0.0124   -0.0099    0.0141 C.3       1 <0>        -0.0934
      3 C3         -1.4480   -0.5490    0.0399 C.3       1 <0>        -0.1147
      4 C4         -1.4013   -2.0642   -0.1682 C.3       1 <0>        -0.0752
      5 C5         -0.4034   -2.6837    0.7663 C.2       1 <0>        -0.1095
      6 C6          0.5326   -2.0073    1.3885 C.2       1 <0>        -0.1118
      7 C7          0.7217   -0.5244    1.2541 C.3       1 <0>        -0.0891
      8 C8         -0.4801   -4.1401    0.9993 C.ar      1 <0>        -0.0558
      9 C9         -1.4884   -4.6692    1.8051 C.ar      1 <0>        -0.0789
     10 C10        -1.5554   -6.0305    2.0189 C.ar      1 <0>        -0.1079
     11 C11        -0.6256   -6.8755    1.4373 C.ar      1 <0>        -0.0987
     12 C12         0.3780   -6.3647    0.6372 C.ar      1 <0>        -0.1141
     13 C13         0.4563   -4.9987    0.4073 C.ar      1 <0>         0.1631
     14 N1          1.4663   -4.4813   -0.4051 N.am      1 <0>        -0.6434
     15 C14         2.6881   -5.0502   -0.4061 C.2       1 <0>         0.6164
     16 O1          2.8880   -6.0624    0.2375 O.2       1 <0>        -0.5148
     17 C15         3.7830   -4.4448   -1.1878 C.2       1 <0>         0.1515
     18 N2          3.6907   -3.3553   -1.9135 N.2       1 <0>        -0.4002
     19 C16         4.8813   -3.1046   -2.4798 C.2       1 <0>         0.0647
     20 C17         5.7547   -4.0969   -2.0790 C.2       1 <0>         0.0695
     21 N3          5.0617   -4.9245   -1.2699 N.pl3     1 <0>        -0.5108
     22 C18         5.1905   -2.0062   -3.3448 C.1       1 <0>         0.2890
     23 N4          5.4358   -1.1347   -4.0311 N.1       1 <0>        -0.3846
     24 C19        -2.6454   -6.6002    2.8897 C.3       1 <0>        -0.0515
     25 C20        -2.0192   -7.3456    4.0719 C.3       1 <0>        -0.1429
     26 C21        -3.1282   -7.9884    4.9076 C.3       1 <0>        -0.0073
     27 N5         -3.8862   -8.9327    4.0780 N.4       1 <0>        -0.5060
     28 C22        -4.5483   -8.2135    2.9830 C.3       1 <0>        -0.0073
     29 C23        -3.4939   -7.5793    2.0733 C.3       1 <0>        -0.1426
     30 H1          0.9842    1.8999    0.0287 H         1 <0>         0.0569
     31 H2         -0.5608    1.8834   -0.8551 H         1 <0>         0.0577
     32 H3         -0.5533    1.8659    0.9248 H         1 <0>         0.0552
     33 H4          0.4969   -0.3590   -0.8842 H         1 <0>         0.0750
     34 H5         -1.9058   -0.3257    1.0036 H         1 <0>         0.0651
     35 H6         -2.0271   -0.0872   -0.7597 H         1 <0>         0.0699
     36 H7         -2.3876   -2.4860    0.0250 H         1 <0>         0.0709
     37 H8         -1.1141   -2.2789   -1.1976 H         1 <0>         0.0738
     38 H9          1.2064   -2.5491    2.0356 H         1 <0>         0.1022
     39 H10         1.7850   -0.3026    1.1625 H         1 <0>         0.0765
     40 H11         0.3261   -0.0279    2.1402 H         1 <0>         0.0791
     41 H12        -2.2155   -4.0139    2.2614 H         1 <0>         0.1294
     42 H13        -0.6850   -7.9398    1.6105 H         1 <0>         0.1219
     43 H14         1.1002   -7.0298    0.1871 H         1 <0>         0.1446
     44 H15         1.2889   -3.7123   -0.9691 H         1 <0>         0.4274
     45 H16         6.7942   -4.1901   -2.3569 H         1 <0>         0.2114
     46 H17        -3.2761   -5.7920    3.2597 H         1 <0>         0.0959
     47 H18        -1.3485   -8.1201    3.6998 H         1 <0>         0.0911
     48 H19        -1.4588   -6.6436    4.6892 H         1 <0>         0.1142
     49 H20        -2.6859   -8.5198    5.7503 H         1 <0>         0.1340
     50 H21        -3.7982   -7.2132    5.2794 H         1 <0>         0.1311
     51 H22        -3.2570   -9.6219    3.6943 H         1 <0>         0.4277
     52 H23        -5.1543   -8.9110    2.4049 H         1 <0>         0.1340
     53 H24        -5.1880   -7.4334    3.3958 H         1 <0>         0.1311
     54 H25        -3.9875   -7.0443    1.2620 H         1 <0>         0.1146
     55 H26        -2.8538   -8.3586    1.6597 H         1 <0>         0.0910
     56 H27        -4.5817   -9.3939    4.6451 H         1 <0>         0.4318
     57 H28         5.4066   -5.7162   -0.8281 H         1 <0>         0.4428
@<TRIPOS>BOND
     1    1    2 1
     2    1   30 1
     3    1   31 1
     4    1   32 1
     5    2    7 1
     6    2    3 1
     7    2   33 1
     8    3    4 1
     9    3   34 1
    10    3   35 1
    11    4    5 1
    12    4   36 1
    13    4   37 1
    14    5    6 2
    15    5    8 1
    16    6    7 1
    17    6   38 1
    18    7   39 1
    19    7   40 1
    20    8   13 ar
    21    8    9 ar
    22    9   10 ar
    23    9   41 1
    24   10   11 ar
    25   10   24 1
    26   11   12 ar
    27   11   42 1
    28   12   13 ar
    29   12   43 1
    30   13   14 1
    31   14   15 am
    32   14   44 1
    33   15   16 2
    34   15   17 1
    35   17   21 1
    36   17   18 2
    37   18   19 1
    38   19   20 2
    39   19   22 1
    40   20   21 1
    41   20   45 1
    42   21   57 1
    43   22   23 3
    44   24   29 1
    45   24   25 1
    46   24   46 1
    47   25   26 1
    48   25   47 1
    49   25   48 1
    50   26   27 1
    51   26   49 1
    52   26   50 1
    53   27   28 1
    54   27   51 1
    55   27   56 1
    56   28   29 1
    57   28   52 1
    58   28   53 1
    59   29   54 1
    60   29   55 1
@<TRIPOS>MOLECULE
CHEMBL402337__2
   56    59     0     0     0
SMALL
USER_CHARGES

@<TRIPOS>ATOM
      1 C1         -0.0415    1.5097    0.0099 C.3       1 <0>        -0.1494
      2 C2         -0.0136   -0.0199   -0.0035 C.3       1 <0>        -0.0889
      3 C3          0.7337   -0.5108   -1.2496 C.3       1 <0>        -0.1176
      4 C4          0.5825   -2.0308   -1.3389 C.3       1 <0>        -0.0713
      5 C5          0.9263   -2.6626   -0.0215 C.2       1 <0>        -0.1051
      6 C6          0.9837   -2.0042    1.1116 C.2       1 <0>        -0.1120
      7 C7          0.7221   -0.5315    1.2368 C.3       1 <0>        -0.0891
      8 C8          1.2166   -4.1106    0.0003 C.ar      1 <0>        -0.0760
      9 C9          0.1790   -5.0356   -0.1158 C.ar      1 <0>        -0.0775
     10 C10         0.4562   -6.3869   -0.0952 C.ar      1 <0>        -0.1328
     11 C11         1.7607   -6.8305    0.0404 C.ar      1 <0>        -0.0968
     12 C12         2.7976   -5.9253    0.1568 C.ar      1 <0>        -0.1234
     13 C13         2.5368   -4.5627    0.1321 C.ar      1 <0>         0.1924
     14 N1          3.5835   -3.6466    0.2438 N.am      1 <0>        -0.6647
     15 C14         4.6460   -3.9291    1.0233 C.2       1 <0>         0.6304
     16 O1          4.7317   -5.0148    1.5641 O.2       1 <0>        -0.5323
     17 C15         5.7059   -2.9204    1.2206 C.2       1 <0>         0.0438
     18 N2          6.8267   -3.0872    1.9771 N.2       1 <0>        -0.4607
     19 C16         7.5431   -1.9203    1.8944 C.2       1 <0>        -0.0333
     20 C17         6.8189   -1.0733    1.0770 C.2       1 <0>        -0.0103
     21 N3          5.7241   -1.7154    0.6894 N.2       1 <0>        -0.5194
     22 C18         8.7942   -1.6356    2.5303 C.1       1 <0>         0.3294
     23 N4          9.7867   -1.4098    3.0348 N.1       1 <0>        -0.4804
     24 C19        -0.6662   -7.3848   -0.2203 C.3       1 <0>        -0.0442
     25 C20        -0.6973   -8.2791    1.0225 C.3       1 <0>        -0.1442
     26 C21        -1.7871   -9.3399    0.8537 C.3       1 <0>        -0.0064
     27 N5         -1.5004  -10.1567   -0.3317 N.4       1 <0>        -0.5056
     28 C22        -1.5399   -9.3183   -1.5358 C.3       1 <0>        -0.0066
     29 C23        -0.4406   -8.2566   -1.4590 C.3       1 <0>        -0.1431
     30 H1          0.9793    1.8918    0.0084 H         1 <0>         0.0586
     31 H2         -0.5661    1.8713   -0.8746 H         1 <0>         0.0540
     32 H3         -0.5577    1.8559    0.9053 H         1 <0>         0.0539
     33 H4         -1.0334   -0.4048   -0.0091 H         1 <0>         0.0679
     34 H5          0.3068   -0.0474   -2.1390 H         1 <0>         0.0657
     35 H6          1.7895   -0.2519   -1.1691 H         1 <0>         0.0719
     36 H7         -0.4468   -2.2768   -1.5999 H         1 <0>         0.0682
     37 H8          1.2505   -2.4157   -2.1095 H         1 <0>         0.0694
     38 H9          1.2338   -2.5539    2.0069 H         1 <0>         0.1022
     39 H10         1.6702   -0.0034    1.3380 H         1 <0>         0.0841
     40 H11         0.1117   -0.3469    2.1208 H         1 <0>         0.0714
     41 H12        -0.8402   -4.6944   -0.2214 H         1 <0>         0.1215
     42 H13         1.9687   -7.8902    0.0555 H         1 <0>         0.1149
     43 H14         3.8127   -6.2784    0.2626 H         1 <0>         0.1454
     44 H15         3.5464   -2.8065   -0.2397 H         1 <0>         0.4214
     45 H16         7.0971   -0.0674    0.7991 H         1 <0>         0.1454
     46 H17        -1.6149   -6.8564   -0.3144 H         1 <0>         0.0912
     47 H18         0.2698   -8.7669    1.1441 H         1 <0>         0.0916
     48 H19        -0.9129   -7.6725    1.9020 H         1 <0>         0.1139
     49 H20        -1.8120   -9.9782    1.7368 H         1 <0>         0.1316
     50 H21        -2.7537   -8.8510    0.7323 H         1 <0>         0.1292
     51 H22        -0.5844  -10.5699   -0.2407 H         1 <0>         0.4279
     52 H23        -1.3824   -9.9406   -2.4167 H         1 <0>         0.1313
     53 H24        -2.5118   -8.8299   -1.6062 H         1 <0>         0.1291
     54 H25        -0.4727   -7.6340   -2.3531 H         1 <0>         0.1137
     55 H26         0.5319   -8.7440   -1.3888 H         1 <0>         0.0911
     56 H27        -2.1908  -10.8884   -0.4097 H         1 <0>         0.4286
@<TRIPOS>BOND
     1    1    2 1
     2    1   30 1
     3    1   31 1
     4    1   32 1
     5    2    7 1
     6    2    3 1
     7    2   33 1
     8    3    4 1
     9    3   34 1
    10    3   35 1
    11    4    5 1
    12    4   36 1
    13    4   37 1
    14    5    6 2
    15    5    8 1
    16    6    7 1
    17    6   38 1
    18    7   39 1
    19    7   40 1
    20    8   13 ar
    21    8    9 ar
    22    9   10 ar
    23    9   41 1
    24   10   11 ar
    25   10   24 1
    26   11   12 ar
    27   11   42 1
    28   12   13 ar
    29   12   43 1
    30   13   14 1
    31   14   15 am
    32   14   44 1
    33   15   16 2
    34   15   17 1
    35   17   21 2
    36   17   18 1
    37   18   19 1
    38   19   20 2
    39   19   22 1
    40   20   21 1
    41   20   45 1
    42   22   23 3
    43   24   29 1
    44   24   25 1
    45   24   46 1
    46   25   26 1
    47   25   47 1
    48   25   48 1
    49   26   27 1
    50   26   49 1
    51   26   50 1
    52   27   28 1
    53   27   51 1
    54   27   56 1
    55   28   29 1
    56   28   52 1
    57   28   53 1
    58   29   54 1
    59   29   55 1
@<TRIPOS>MOLECULE
CHEMBL402337__3
   57    60     0     0     0
SMALL
USER_CHARGES

@<TRIPOS>ATOM
      1 C1         -0.0415    1.5097    0.0099 C.3       1 <0>        -0.1511
      2 C2         -0.0136   -0.0199   -0.0035 C.3       1 <0>        -0.0907
      3 C3          0.7337   -0.5108   -1.2495 C.3       1 <0>        -0.1174
      4 C4          0.5825   -2.0308   -1.3389 C.3       1 <0>        -0.0746
      5 C5          0.9263   -2.6626   -0.0215 C.2       1 <0>        -0.1096
      6 C6          0.9837   -2.0042    1.1116 C.2       1 <0>        -0.1118
      7 C7          0.7221   -0.5316    1.2368 C.3       1 <0>        -0.0904
      8 C8          1.2166   -4.1106    0.0004 C.ar      1 <0>        -0.0560
      9 C9          0.1791   -5.0356   -0.1158 C.ar      1 <0>        -0.0787
     10 C10         0.4562   -6.3869   -0.0952 C.ar      1 <0>        -0.1080
     11 C11         1.7606   -6.8304    0.0409 C.ar      1 <0>        -0.0987
     12 C12         2.7976   -5.9251    0.1568 C.ar      1 <0>        -0.1142
     13 C13         2.5368   -4.5627    0.1321 C.ar      1 <0>         0.1633
     14 N1          3.5836   -3.6464    0.2438 N.am      1 <0>        -0.6433
     15 C14         4.6461   -3.9289    1.0234 C.2       1 <0>         0.6164
     16 O1          4.7319   -5.0146    1.5643 O.2       1 <0>        -0.5148
     17 C15         5.7051   -2.9210    1.2205 C.2       1 <0>         0.1515
     18 N2          5.7208   -1.7179    0.6964 N.2       1 <0>        -0.4003
     19 C16         6.8342   -1.0824    1.0929 C.2       1 <0>         0.0647
     20 C17         7.5430   -1.9443    1.9071 C.2       1 <0>         0.0695
     21 N3          6.8282   -3.0858    1.9844 N.pl3     1 <0>        -0.5107
     22 C18         7.2189    0.2498    0.7354 C.1       1 <0>         0.2890
     23 N4          7.5241    1.3067    0.4518 N.1       1 <0>        -0.3846
     24 C19        -0.6661   -7.3848   -0.2208 C.3       1 <0>        -0.0515
     25 C20        -0.6976   -8.2792    1.0219 C.3       1 <0>        -0.1429
     26 C21        -1.7873   -9.3400    0.8526 C.3       1 <0>        -0.0073
     27 N5         -1.5002  -10.1568   -0.3327 N.4       1 <0>        -0.5060
     28 C22        -1.5392   -9.3182   -1.5368 C.3       1 <0>        -0.0073
     29 C23        -0.4400   -8.2565   -1.4594 C.3       1 <0>        -0.1426
     30 H1          0.9793    1.8918    0.0084 H         1 <0>         0.0570
     31 H2         -0.5661    1.8713   -0.8746 H         1 <0>         0.0574
     32 H3         -0.5577    1.8559    0.9053 H         1 <0>         0.0563
     33 H4         -1.0334   -0.4048   -0.0091 H         1 <0>         0.0714
     34 H5          0.3068   -0.0474   -2.1390 H         1 <0>         0.0701
     35 H6          1.7895   -0.2519   -1.1691 H         1 <0>         0.0684
     36 H7         -0.4467   -2.2769   -1.5999 H         1 <0>         0.0735
     37 H8          1.2505   -2.4157   -2.1094 H         1 <0>         0.0706
     38 H9          1.2335   -2.5540    2.0070 H         1 <0>         0.1022
     39 H10         1.6702   -0.0034    1.3380 H         1 <0>         0.0816
     40 H11         0.1117   -0.3469    2.1208 H         1 <0>         0.0755
     41 H12        -0.8401   -4.6944   -0.2214 H         1 <0>         0.1292
     42 H13         1.9686   -7.8901    0.0568 H         1 <0>         0.1218
     43 H14         3.8127   -6.2783    0.2630 H         1 <0>         0.1446
     44 H15         3.5465   -2.8063   -0.2397 H         1 <0>         0.4275
     45 H16         8.4865   -1.7417    2.3921 H         1 <0>         0.2114
     46 H17        -1.6148   -6.8564   -0.3152 H         1 <0>         0.0959
     47 H18         0.2695   -8.7670    1.1439 H         1 <0>         0.0911
     48 H19        -0.9136   -7.6727    1.9015 H         1 <0>         0.1142
     49 H20        -1.8126   -9.9784    1.7358 H         1 <0>         0.1340
     50 H21        -2.7539   -8.8512    0.7310 H         1 <0>         0.1311
     51 H22        -0.5842  -10.5699   -0.2413 H         1 <0>         0.4277
     52 H23        -1.3814   -9.9405   -2.4176 H         1 <0>         0.1340
     53 H24        -2.5111   -8.8298   -1.6075 H         1 <0>         0.1311
     54 H25        -0.4718   -7.6339   -2.3535 H         1 <0>         0.1146
     55 H26         0.5324   -8.7439   -1.3889 H         1 <0>         0.0910
     56 H27        -2.1906  -10.8884   -0.4110 H         1 <0>         0.4318
     57 H28         7.0677   -3.8793    2.4882 H         1 <0>         0.4428
@<TRIPOS>BOND
     1    1    2 1
     2    1   30 1
     3    1   31 1
     4    1   32 1
     5    2    7 1
     6    2    3 1
     7    2   33 1
     8    3    4 1
     9    3   34 1
    10    3   35 1
    11    4    5 1
    12    4   36 1
    13    4   37 1
    14    5    6 2
    15    5    8 1
    16    6    7 1
    17    6   38 1
    18    7   39 1
    19    7   40 1
    20    8   13 ar
    21    8    9 ar
    22    9   10 ar
    23    9   41 1
    24   10   11 ar
    25   10   24 1
    26   11   12 ar
    27   11   42 1
    28   12   13 ar
    29   12   43 1
    30   13   14 1
    31   14   15 am
    32   14   44 1
    33   15   16 2
    34   15   17 1
    35   17   21 1
    36   17   18 2
    37   18   19 1
    38   19   20 2
    39   19   22 1
    40   20   21 1
    41   20   45 1
    42   21   57 1
    43   22   23 3
    44   24   29 1
    45   24   25 1
    46   24   46 1
    47   25   26 1
    48   25   47 1
    49   25   48 1
    50   26   27 1
    51   26   49 1
    52   26   50 1
    53   27   28 1
    54   27   51 1
    55   27   56 1
    56   28   29 1
    57   28   52 1
    58   28   53 1
    59   29   54 1
    60   29   55 1
@<TRIPOS>MOLECULE
CHEMBL241516
   36    39     0     0     0
SMALL
USER_CHARGES

@<TRIPOS>ATOM
      1 C1          0.0488    1.0451   -1.1185 C.ar      1 <0>        -0.1634
      2 C2          1.2301    1.7617   -1.2051 C.ar      1 <0>        -0.0466
      3 C3          2.3803    1.2159   -0.6277 C.ar      1 <0>        -0.1373
      4 C4          2.2929   -0.0214    0.0088 C.ar      1 <0>         0.1320
      5 N1          1.1459   -0.6662    0.0657 N.ar      1 <0>        -0.4717
      6 C5          0.0443   -0.1762   -0.4698 C.ar      1 <0>         0.1287
      7 C6          3.6720    1.9407   -0.6917 C.ar      1 <0>        -0.0034
      8 C7          4.1467    2.4431   -1.8989 C.ar      1 <0>         0.1314
      9 N2          5.3007    3.0871   -1.9414 N.ar      1 <0>        -0.4927
     10 C8          6.0555    3.2914   -0.8817 C.ar      1 <0>         0.4985
     11 C9          5.6662    2.8218    0.3997 C.ar      1 <0>        -0.1341
     12 C10         4.4354    2.1392    0.4573 C.ar      1 <0>        -0.0552
     13 S1          4.2633    1.7123    2.1678 S.3       1 <0>         0.2228
     14 C11         5.7750    2.4256    2.7882 C.2       1 <0>        -0.1230
     15 C12         6.3556    2.9459    1.6813 C.2       1 <0>        -0.0534
     16 C13         7.6594    3.6454    1.7717 C.ar      1 <0>        -0.0746
     17 C14         7.7752    4.9669    1.3420 C.ar      1 <0>        -0.0774
     18 C15         8.9905    5.6144    1.4278 C.ar      1 <0>        -0.1410
     19 C16        10.0954    4.9540    1.9399 C.ar      1 <0>         0.1343
     20 C17         9.9858    3.6401    2.3685 C.ar      1 <0>        -0.0746
     21 C18         8.7720    2.9860    2.2918 C.ar      1 <0>        -0.0572
     22 Cl1        11.3744    2.8186    3.0092 Cl        1 <0>        -0.0207
     23 F1         11.2834    5.5921    2.0214 F         1 <0>        -0.1116
     24 N3          7.2530    3.9776   -1.0207 N.pl3     1 <0>        -0.8277
     25 H1         -0.8605    1.4377   -1.5491 H         1 <0>         0.1505
     26 H2          1.2623    2.7178   -1.7062 H         1 <0>         0.1432
     27 H3          3.1736   -0.4551    0.4590 H         1 <0>         0.1577
     28 H4         -0.8756   -0.7377   -0.4006 H         1 <0>         0.1696
     29 H5          3.5719    2.3065   -2.8030 H         1 <0>         0.2156
     30 H6          6.1439    2.4327    3.8032 H         1 <0>         0.2164
     31 H7          6.9147    5.4828    0.9422 H         1 <0>         0.1444
     32 H8          9.0807    6.6378    1.0948 H         1 <0>         0.1580
     33 H9          8.6859    1.9640    2.6303 H         1 <0>         0.1543
     34 H10         7.3563    4.6350   -1.7264 H         1 <0>         0.4238
     35 H11         7.9872    3.8001   -0.4120 H         1 <0>         0.4378
     36 H12         5.6072    3.4263   -2.7969 H         1 <0>         0.4469
@<TRIPOS>BOND
     1    1    6 ar
     2    1    2 ar
     3    1   25 1
     4    2    3 ar
     5    2   26 1
     6    3    4 ar
     7    3    7 1
     8    4    5 ar
     9    4   27 1
    10    5    6 ar
    11    6   28 1
    12    7   12 ar
    13    7    8 ar
    14    8    9 ar
    15    8   29 1
    16    9   10 ar
    17    9   36 1
    18   10   11 ar
    19   10   24 1
    20   11   15 1
    21   11   12 ar
    22   12   13 1
    23   13   14 1
    24   14   15 2
    25   14   30 1
    26   15   16 1
    27   16   21 ar
    28   16   17 ar
    29   17   18 ar
    30   17   31 1
    31   18   19 ar
    32   18   32 1
    33   19   20 ar
    34   19   23 1
    35   20   21 ar
    36   20   22 1
    37   21   33 1
    38   24   34 1
    39   24   35 1
@<TRIPOS>MOLECULE
CHEMBL241516__1
   35    38     0     0     0
SMALL
USER_CHARGES

@<TRIPOS>ATOM
      1 C1          0.0477    1.0547   -1.0957 C.ar      1 <0>        -0.1669
      2 C2          1.2287    1.7722   -1.1788 C.ar      1 <0>        -0.0623
      3 C3          2.3784    1.2257   -0.6010 C.ar      1 <0>        -0.0889
      4 C4          2.2907   -0.0131    0.0325 C.ar      1 <0>         0.1138
      5 N1          1.1440   -0.6587    0.0862 N.ar      1 <0>        -0.4782
      6 C5          0.0430   -0.1681   -0.4499 C.ar      1 <0>         0.0995
      7 C6          3.6698    1.9514   -0.6613 C.ar      1 <0>        -0.1096
      8 C7          4.1459    2.4569   -1.8666 C.ar      1 <0>         0.1846
      9 N2          5.2997    3.1018   -1.9058 N.ar      1 <0>        -0.5412
     10 C8          6.0525    3.3043   -0.8445 C.ar      1 <0>         0.4603
     11 C9          5.6615    2.8315    0.4353 C.ar      1 <0>        -0.1802
     12 C10         4.4312    2.1476    0.4893 C.ar      1 <0>        -0.0414
     13 S1          4.2569    1.7167    2.1986 S.3       1 <0>         0.0880
     14 C11         5.7671    2.4293    2.8229 C.2       1 <0>        -0.1527
     15 C12         6.3488    2.9533    1.7183 C.2       1 <0>        -0.0515
     16 C13         7.6517    3.6538    1.8124 C.ar      1 <0>        -0.0465
     17 C14         7.7668    4.9767    1.3866 C.ar      1 <0>        -0.0636
     18 C15         8.9814    5.6251    1.4758 C.ar      1 <0>        -0.1438
     19 C16        10.0862    4.9643    1.9875 C.ar      1 <0>         0.1184
     20 C17         9.9773    3.6491    2.4123 C.ar      1 <0>        -0.0752
     21 C18         8.7643    2.9940    2.3321 C.ar      1 <0>        -0.0657
     22 Cl1        11.3659    2.8271    3.0525 Cl        1 <0>        -0.0392
     23 F1         11.2735    5.6033    2.0725 F         1 <0>        -0.1215
     24 N3          7.2497    3.9919   -0.9799 N.pl3     1 <0>        -0.8513
     25 H1         -0.8611    1.4477   -1.5268 H         1 <0>         0.1396
     26 H2          1.2611    2.7295   -1.6777 H         1 <0>         0.1377
     27 H3          3.1710   -0.4474    0.4830 H         1 <0>         0.1534
     28 H4         -0.8767   -0.7304   -0.3834 H         1 <0>         0.1584
     29 H5          3.5726    2.3221   -2.7719 H         1 <0>         0.1699
     30 H6          6.1345    2.4343    3.8385 H         1 <0>         0.1955
     31 H7          6.9064    5.4929    0.9871 H         1 <0>         0.1447
     32 H8          9.0711    6.6495    1.1458 H         1 <0>         0.1519
     33 H9          8.6787    1.9710    2.6676 H         1 <0>         0.1486
     34 H10         7.3538    4.6502   -1.6846 H         1 <0>         0.4061
     35 H11         7.9826    3.8144   -0.3698 H         1 <0>         0.4091
@<TRIPOS>BOND
     1    1    6 ar
     2    1    2 ar
     3    1   25 1
     4    2    3 ar
     5    2   26 1
     6    3    4 ar
     7    3    7 1
     8    4    5 ar
     9    4   27 1
    10    5    6 ar
    11    6   28 1
    12    7   12 ar
    13    7    8 ar
    14    8    9 ar
    15    8   29 1
    16    9   10 ar
    17   10   11 ar
    18   10   24 1
    19   11   15 1
    20   11   12 ar
    21   12   13 1
    22   13   14 1
    23   14   15 2
    24   14   30 1
    25   15   16 1
    26   16   21 ar
    27   16   17 ar
    28   17   18 ar
    29   17   31 1
    30   18   19 ar
    31   18   32 1
    32   19   20 ar
    33   19   23 1
    34   20   21 ar
    35   20   22 1
    36   21   33 1
    37   24   34 1
    38   24   35 1
@<TRIPOS>MOLECULE
CHEMBL521422
   57    60     0     0     0
SMALL
USER_CHARGES

@<TRIPOS>ATOM
      1 C1          5.3110   -0.1286    0.4448 C.3       1 <0>         0.0205
      2 O1          4.9139   -1.4903    0.2714 O.3       1 <0>        -0.3059
      3 C2          4.1089   -1.7685   -0.7887 C.ar      1 <0>         0.1212
      4 C3          3.7252   -0.7630   -1.6289 C.ar      1 <0>        -0.1459
      5 C4          2.8951   -1.0469   -2.7230 C.ar      1 <0>        -0.0985
      6 C5          2.4578   -2.3736   -2.9530 C.ar      1 <0>         0.1590
      7 C6          2.8651   -3.3895   -2.0755 C.ar      1 <0>        -0.1622
      8 C7          3.6853   -3.0857   -1.0122 C.ar      1 <0>         0.1407
      9 O2          4.0836   -4.0722   -0.1675 O.3       1 <0>        -0.3103
     10 C8          3.6186   -5.3939   -0.4485 C.3       1 <0>         0.0206
     11 C9          4.1665   -6.3615    0.6025 C.3       1 <0>         0.0047
     12 N1          3.6067   -6.0239    1.9180 N.4       1 <0>        -0.3966
     13 C10         2.1527   -6.3260    1.9487 C.3       1 <0>        -0.0111
     14 C11         1.8518   -6.4670    3.4620 C.3       1 <0>        -0.1447
     15 C12         3.1186   -7.1694    4.0024 C.3       1 <0>        -0.1450
     16 C13         4.2169   -6.8720    2.9648 C.3       1 <0>        -0.0084
     17 N2          1.6643   -2.6519   -3.9984 N.ar      1 <0>        -0.4692
     18 C14         1.2682   -1.7268   -4.8341 C.ar      1 <0>         0.1715
     19 C15         1.6530   -0.3847   -4.6831 C.ar      1 <0>        -0.1989
     20 C16         2.4826   -0.0247   -3.6098 C.ar      1 <0>         0.2797
     21 N3          2.8822    1.2820   -3.4256 N.pl3     1 <0>        -0.6863
     22 C17         4.0020    1.7730   -4.1044 C.ar      1 <0>         0.2278
     23 C18         4.6284    0.9930   -5.0683 C.ar      1 <0>        -0.1542
     24 C19         5.7338    1.4796   -5.7381 C.ar      1 <0>        -0.0934
     25 C20         6.2187    2.7440   -5.4494 C.ar      1 <0>         0.0629
     26 C21         5.5962    3.5240   -4.4881 C.ar      1 <0>        -0.0265
     27 C22         4.4858    3.0432   -3.8199 C.ar      1 <0>        -0.1442
     28 Cl1         6.2068    5.1087   -4.1279 Cl        1 <0>        -0.0397
     29 F1          7.3005    3.2176   -6.1056 F         1 <0>        -0.1275
     30 C23         1.1914    0.6334   -5.6400 C.2       1 <0>         0.5638
     31 O3          1.4468    1.8073   -5.4496 O.2       1 <0>        -0.5124
     32 N4          0.4855    0.2651   -6.7275 N.am      1 <0>        -0.8474
     33 H1          5.8606    0.2045   -0.4356 H         1 <0>         0.0634
     34 H2          4.4261    0.4938    0.5777 H         1 <0>         0.0617
     35 H3          5.9492   -0.0454    1.3245 H         1 <0>         0.1103
     36 H4          4.0597    0.2484   -1.4512 H         1 <0>         0.1527
     37 H5          2.5404   -4.4069   -2.2362 H         1 <0>         0.1546
     38 H6          2.5290   -5.4087   -0.4230 H         1 <0>         0.0901
     39 H7          3.9631   -5.6979   -1.4369 H         1 <0>         0.1138
     40 H8          3.8858   -7.3812    0.3390 H         1 <0>         0.1510
     41 H9          5.2530   -6.2815    0.6386 H         1 <0>         0.1430
     42 H10         1.5800   -5.5050    1.5175 H         1 <0>         0.1332
     43 H11         1.9426   -7.2592    1.4261 H         1 <0>         0.1358
     44 H12         1.7274   -5.4874    3.9235 H         1 <0>         0.0981
     45 H13         0.9691   -7.0857    3.6238 H         1 <0>         0.1174
     46 H14         3.3941   -6.7581    4.9735 H         1 <0>         0.1056
     47 H15         2.9517   -8.2438    4.0793 H         1 <0>         0.1045
     48 H16         4.5752   -7.8032    2.5261 H         1 <0>         0.1318
     49 H17         5.0418   -6.3404    3.4393 H         1 <0>         0.1332
     50 H18         0.6298   -2.0019   -5.6606 H         1 <0>         0.1697
     51 H19         2.3866    1.8607   -2.8253 H         1 <0>         0.4211
     52 H20         4.2512    0.0064   -5.2936 H         1 <0>         0.1270
     53 H21         6.2207    0.8731   -6.4874 H         1 <0>         0.1463
     54 H22         3.9977    3.6529   -3.0740 H         1 <0>         0.1446
     55 H23         0.2818   -0.6710   -6.8794 H         1 <0>         0.4004
     56 H24         0.1812    0.9362   -7.3583 H         1 <0>         0.4122
     57 H25         3.7648   -5.0489    2.1241 H         1 <0>         0.4344
@<TRIPOS>BOND
     1    1    2 1
     2    1   33 1
     3    1   34 1
     4    1   35 1
     5    2    3 1
     6    3    8 ar
     7    3    4 ar
     8    4    5 ar
     9    4   36 1
    10    5   20 ar
    11    5    6 ar
    12    6    7 ar
    13    6   17 ar
    14    7    8 ar
    15    7   37 1
    16    8    9 1
    17    9   10 1
    18   10   11 1
    19   10   38 1
    20   10   39 1
    21   11   12 1
    22   11   40 1
    23   11   41 1
    24   12   16 1
    25   12   13 1
    26   12   57 1
    27   13   14 1
    28   13   42 1
    29   13   43 1
    30   14   15 1
    31   14   44 1
    32   14   45 1
    33   15   16 1
    34   15   46 1
    35   15   47 1
    36   16   48 1
    37   16   49 1
    38   17   18 ar
    39   18   19 ar
    40   18   50 1
    41   19   20 ar
    42   19   30 1
    43   20   21 1
    44   21   22 1
    45   21   51 1
    46   22   27 ar
    47   22   23 ar
    48   23   24 ar
    49   23   52 1
    50   24   25 ar
    51   24   53 1
    52   25   26 ar
    53   25   29 1
    54   26   27 ar
    55   26   28 1
    56   27   54 1
    57   30   31 2
    58   30   32 am
    59   32   55 1
    60   32   56 1
@<TRIPOS>MOLECULE
CHEMBL521422__1
   58    61     0     0     0
SMALL
USER_CHARGES

@<TRIPOS>ATOM
      1 C1         -3.1260   -0.0279    3.6470 C.3       1 <0>         0.0115
      2 O1         -2.7971   -1.4166    3.5731 O.3       1 <0>        -0.2888
      3 C2         -1.4760   -1.7389    3.5725 C.ar      1 <0>         0.1444
      4 C3         -0.5382   -0.7494    3.6464 C.ar      1 <0>        -0.1260
      5 C4          0.8249   -1.0789    3.6460 C.ar      1 <0>        -0.0794
      6 C5          1.2243   -2.4349    3.5690 C.ar      1 <0>         0.1663
      7 C6          0.2421   -3.4337    3.4934 C.ar      1 <0>        -0.2203
      8 C7         -1.0896   -3.0844    3.5017 C.ar      1 <0>         0.2093
      9 O2         -2.0390   -4.0536    3.4349 O.3       1 <0>        -0.2930
     10 C8         -1.5819   -5.4057    3.3646 C.3       1 <0>         0.0152
     11 C9         -2.7854   -6.3480    3.2960 C.3       1 <0>         0.0026
     12 N1         -3.5157   -6.1190    2.0421 N.4       1 <0>        -0.3987
     13 C10        -2.7020   -6.5729    0.8853 C.3       1 <0>        -0.0119
     14 C11        -3.7592   -6.7996   -0.2245 C.3       1 <0>        -0.1450
     15 C12        -4.9592   -7.3843    0.5554 C.3       1 <0>        -0.1463
     16 C13        -4.7483   -6.9358    2.0134 C.3       1 <0>        -0.0088
     17 N2          2.5268   -2.7568    3.5690 N.ar      1 <0>        -0.4553
     18 C14         3.4656   -1.8486    3.6393 C.ar      1 <0>         0.2342
     19 C15         3.1614   -0.4800    3.7186 C.ar      1 <0>        -0.1967
     20 C16         1.8179   -0.0741    3.7221 C.ar      1 <0>         0.3915
     21 N3          1.4771    1.2597    3.7977 N.pl3     1 <0>        -0.7018
     22 C17         1.2835    1.8624    5.0448 C.ar      1 <0>         0.2017
     23 C18         1.6255    1.1821    6.2067 C.ar      1 <0>        -0.1502
     24 C19         1.4341    1.7788    7.4373 C.ar      1 <0>        -0.0951
     25 C20         0.9014    3.0546    7.5143 C.ar      1 <0>         0.0861
     26 C21         0.5589    3.7354    6.3569 C.ar      1 <0>        -0.0309
     27 C22         0.7546    3.1440    5.1230 C.ar      1 <0>        -0.1264
     28 Cl1        -0.1094    5.3345    6.4565 Cl        1 <0>        -0.0214
     29 F1          0.7147    3.6361    8.7193 F         1 <0>        -0.1178
     30 C23         4.2399    0.5181    3.7970 C.2       1 <0>         0.5637
     31 O3          3.9707    1.6926    3.9634 O.2       1 <0>        -0.4796
     32 N4          5.5259    0.1308    3.6846 N.am      1 <0>        -0.8393
     33 H1         -2.6978    0.4930    2.7907 H         1 <0>         0.0715
     34 H2         -4.2096    0.0898    3.6393 H         1 <0>         0.1247
     35 H3         -2.7214    0.3928    4.5676 H         1 <0>         0.0729
     36 H4         -0.8453    0.2843    3.7047 H         1 <0>         0.1774
     37 H5          0.5295   -4.4730    3.4338 H         1 <0>         0.1725
     38 H6         -0.9674   -5.5357    2.4738 H         1 <0>         0.0969
     39 H7         -0.9904   -5.6358    4.2508 H         1 <0>         0.1206
     40 H8         -2.4403   -7.3813    3.3320 H         1 <0>         0.1580
     41 H9         -3.4459   -6.1559    4.1415 H         1 <0>         0.1480
     42 H10        -1.9917   -5.8014    0.5882 H         1 <0>         0.1299
     43 H11        -2.1851   -7.5034    1.1200 H         1 <0>         0.1373
     44 H12        -4.0299   -5.8558   -0.6979 H         1 <0>         0.0992
     45 H13        -3.3953   -7.5129   -0.9640 H         1 <0>         0.1201
     46 H14        -5.8949   -6.9819    0.1673 H         1 <0>         0.1088
     47 H15        -4.9586   -8.4724    0.4904 H         1 <0>         0.1075
     48 H16        -4.6310   -7.8078    2.6568 H         1 <0>         0.1344
     49 H17        -5.5976   -6.3382    2.3446 H         1 <0>         0.1362
     50 H18         4.5000   -2.1591    3.6367 H         1 <0>         0.2176
     51 H19         1.3716    1.7801    2.9859 H         1 <0>         0.4361
     52 H20         2.0404    0.1867    6.1476 H         1 <0>         0.1220
     53 H21         1.7000    1.2498    8.3406 H         1 <0>         0.1523
     54 H22         0.4922    3.6765    4.2207 H         1 <0>         0.1515
     55 H23         5.7406   -0.8058    3.5520 H         1 <0>         0.3984
     56 H24         6.2368    0.7887    3.7363 H         1 <0>         0.4263
     57 H25        -3.7441   -5.1409    1.9457 H         1 <0>         0.4328
     58 H26         2.7800   -3.6916    3.5156 H         1 <0>         0.4532
@<TRIPOS>BOND
     1    1    2 1
     2    1   33 1
     3    1   34 1
     4    1   35 1
     5    2    3 1
     6    3    8 ar
     7    3    4 ar
     8    4    5 ar
     9    4   36 1
    10    5   20 ar
    11    5    6 ar
    12    6    7 ar
    13    6   17 ar
    14    7    8 ar
    15    7   37 1
    16    8    9 1
    17    9   10 1
    18   10   11 1
    19   10   38 1
    20   10   39 1
    21   11   12 1
    22   11   40 1
    23   11   41 1
    24   12   16 1
    25   12   13 1
    26   12   57 1
    27   13   14 1
    28   13   42 1
    29   13   43 1
    30   14   15 1
    31   14   44 1
    32   14   45 1
    33   15   16 1
    34   15   46 1
    35   15   47 1
    36   16   48 1
    37   16   49 1
    38   17   18 ar
    39   17   58 1
    40   18   19 ar
    41   18   50 1
    42   19   20 ar
    43   19   30 1
    44   20   21 1
    45   21   22 1
    46   21   51 1
    47   22   27 ar
    48   22   23 ar
    49   23   24 ar
    50   23   52 1
    51   24   25 ar
    52   24   53 1
    53   25   26 ar
    54   25   29 1
    55   26   27 ar
    56   26   28 1
    57   27   54 1
    58   30   31 2
    59   30   32 am
    60   32   55 1
    61   32   56 1
@<TRIPOS>MOLECULE
CHEMBL1088040
   37    39     0     0     0
SMALL
USER_CHARGES

@<TRIPOS>ATOM
      1 C1         -0.0178    1.4608    0.0101 C.3       1 <0>         0.0992
      2 N1          0.0021   -0.0041    0.0020 N.pl3     1 <0>        -0.3711
      3 C2          0.0078   -0.7882   -1.0944 C.2       1 <0>         0.0783
      4 C3          0.0282   -2.0864   -0.6734 C.2       1 <0>        -0.1870
      5 C4          0.0349   -2.0757    0.7355 C.2       1 <0>         0.0865
      6 N2          0.0245   -0.8307    1.1318 N.2       1 <0>        -0.2989
      7 C5          0.0405   -3.2897   -1.5413 C.ar      1 <0>         0.1558
      8 C6          0.1420   -3.1501   -2.9210 C.ar      1 <0>         0.0334
      9 N3          0.1533   -4.2207   -3.6979 N.ar      1 <0>        -0.4682
     10 C7          0.0678   -5.4298   -3.1640 C.ar      1 <0>         0.3079
     11 C8         -0.0347   -5.5753   -1.7739 C.ar      1 <0>         0.3329
     12 N4         -0.0403   -4.5032   -0.9978 N.ar      1 <0>        -0.4701
     13 N5         -0.1250   -6.8448   -1.2103 N.pl3     1 <0>        -0.7123
     14 C9         -0.2321   -6.9952    0.2430 C.3       1 <0>         0.1718
     15 C10        -0.3154   -8.4589    0.5918 C.ar      1 <0>        -0.0985
     16 C11        -1.5472   -9.0841    0.6634 C.ar      1 <0>        -0.0102
     17 C12        -1.6230  -10.4280    0.9838 C.ar      1 <0>        -0.1083
     18 C13        -0.4682  -11.1456    1.2327 C.ar      1 <0>        -0.0849
     19 C14         0.7629  -10.5214    1.1613 C.ar      1 <0>        -0.1083
     20 C15         0.8404   -9.1790    0.8350 C.ar      1 <0>        -0.0102
     21 Cl1         2.3872   -8.3970    0.7378 Cl        1 <0>        -0.0442
     22 Cl2        -2.9978   -8.1827    0.3520 Cl        1 <0>        -0.0444
     23 N6          0.0794   -6.5559   -3.9836 N.pl3     1 <0>        -0.8494
     24 H1          1.0048    1.8381    0.0023 H         1 <0>         0.0776
     25 H2         -0.5450    1.8219   -0.8730 H         1 <0>         0.0898
     26 H3         -0.5280    1.8123    0.9069 H         1 <0>         0.0915
     27 H4         -0.0025   -0.4504   -2.1202 H         1 <0>         0.1803
     28 H5          0.0503   -2.9450    1.3762 H         1 <0>         0.1886
     29 H6          0.2115   -2.1655   -3.3594 H         1 <0>         0.1604
     30 H7         -0.1171   -7.6300   -1.7799 H         1 <0>         0.4031
     31 H8          0.6453   -6.5575    0.7192 H         1 <0>         0.0844
     32 H9         -1.1290   -6.4860    0.5958 H         1 <0>         0.0843
     33 H10        -2.5847  -10.9162    1.0398 H         1 <0>         0.1432
     34 H11        -0.5279  -12.1944    1.4835 H         1 <0>         0.1453
     35 H12         1.6649  -11.0825    1.3562 H         1 <0>         0.1432
     36 H13         0.1501   -6.4548   -4.9457 H         1 <0>         0.4069
     37 H14         0.0168   -7.4413   -3.5923 H         1 <0>         0.4015
@<TRIPOS>BOND
     1    1    2 1
     2    1   24 1
     3    1   25 1
     4    1   26 1
     5    2    6 1
     6    2    3 1
     7    3    4 2
     8    3   27 1
     9    4    5 1
    10    4    7 1
    11    5    6 2
    12    5   28 1
    13    7   12 ar
    14    7    8 ar
    15    8    9 ar
    16    8   29 1
    17    9   10 ar
    18   10   11 ar
    19   10   23 1
    20   11   12 ar
    21   11   13 1
    22   13   14 1
    23   13   30 1
    24   14   15 1
    25   14   31 1
    26   14   32 1
    27   15   20 ar
    28   15   16 ar
    29   16   17 ar
    30   16   22 1
    31   17   18 ar
    32   17   33 1
    33   18   19 ar
    34   18   34 1
    35   19   20 ar
    36   19   35 1
    37   20   21 1
    38   23   36 1
    39   23   37 1
@<TRIPOS>MOLECULE
CHEMBL256950
   50    53     0     0     0
SMALL
USER_CHARGES

@<TRIPOS>ATOM
      1 C1         -0.0197    1.3952    0.0307 C.ar      1 <0>        -0.0954
      2 C2          1.1658    2.1049    0.0147 C.ar      1 <0>        -0.1237
      3 C3          2.3785    1.4317   -0.0044 C.ar      1 <0>         0.1945
      4 C4          2.3948    0.0298   -0.0074 C.ar      1 <0>        -0.0623
      5 C5          1.1910   -0.6739    0.0089 C.ar      1 <0>        -0.0760
      6 C6         -0.0068    0.0112    0.0278 C.ar      1 <0>        -0.1331
      7 C7         -1.3067   -0.7511    0.0459 C.3       1 <0>        -0.0442
      8 C8         -2.1364   -0.3778   -1.1859 C.3       1 <0>        -0.1442
      9 C9         -3.4871   -1.0940   -1.1205 C.3       1 <0>        -0.0064
     10 N1         -4.2024   -0.6870    0.0949 N.4       1 <0>        -0.5056
     11 C10        -3.4467   -1.1058    1.2815 C.3       1 <0>        -0.0065
     12 C11        -2.0945   -0.3900    1.3085 C.3       1 <0>        -0.1433
     13 C12         3.6800   -0.6977   -0.0281 C.2       1 <0>        -0.1208
     14 C13         4.4590   -0.8155   -1.0903 C.2       1 <0>        -0.1238
     15 C14         5.6948   -1.6213   -0.7633 C.3       1 <0>        -0.1018
     16 C15         5.7650   -1.6285    0.7810 C.3       1 <0>        -0.1257
     17 C16         4.2859   -1.4028    1.1632 C.3       1 <0>        -0.0820
     18 N2          3.5768    2.1467   -0.0210 N.am      1 <0>        -0.6649
     19 C17         3.6542    3.3168   -0.6854 C.2       1 <0>         0.6305
     20 O1          2.6600    3.7901   -1.2010 O.2       1 <0>        -0.5318
     21 C18         4.9463    4.0238   -0.7871 C.2       1 <0>         0.0435
     22 N3          5.1514    5.2106   -1.4241 N.2       1 <0>        -0.4606
     23 C19         6.4815    5.5156   -1.2844 C.2       1 <0>        -0.0332
     24 C20         7.0450    4.4855   -0.5555 C.2       1 <0>        -0.0102
     25 N4          6.0864    3.6125   -0.2720 N.2       1 <0>        -0.5196
     26 C21         7.1537    6.6728   -1.7939 C.1       1 <0>         0.3295
     27 N5          7.6870    7.5909   -2.1981 N.1       1 <0>        -0.4803
     28 H1         -0.9615    1.9234    0.0500 H         1 <0>         0.1156
     29 H2          1.1482    3.1847    0.0167 H         1 <0>         0.1463
     30 H3          1.1961   -1.7539    0.0068 H         1 <0>         0.1220
     31 H4         -1.1016   -1.8216    0.0380 H         1 <0>         0.0914
     32 H5         -2.2966    0.7003   -1.2038 H         1 <0>         0.0917
     33 H6         -1.6061   -0.6826   -2.0880 H         1 <0>         0.1141
     34 H7         -4.0803   -0.8305   -1.9961 H         1 <0>         0.1317
     35 H8         -3.3258   -2.1718   -1.1028 H         1 <0>         0.1292
     36 H9         -4.3082    0.3164    0.1016 H         1 <0>         0.4280
     37 H10        -4.0101   -0.8510    2.1791 H         1 <0>         0.1314
     38 H11        -3.2863   -2.1834    1.2479 H         1 <0>         0.1291
     39 H12        -1.5342   -0.7036    2.1893 H         1 <0>         0.1138
     40 H13        -2.2538    0.6878    1.3424 H         1 <0>         0.0913
     41 H14         4.2412   -0.3932   -2.0601 H         1 <0>         0.1231
     42 H15         5.5962   -2.6381   -1.1434 H         1 <0>         0.0755
     43 H16         6.5808   -1.1434   -1.1811 H         1 <0>         0.0777
     44 H17         6.1244   -2.5887    1.1510 H         1 <0>         0.0724
     45 H18         6.3879   -0.8125    1.1474 H         1 <0>         0.0771
     46 H19         4.2139   -0.7761    2.0520 H         1 <0>         0.0693
     47 H20         3.7899   -2.3588    1.3308 H         1 <0>         0.0705
     48 H21         4.3540    1.8015    0.4455 H         1 <0>         0.4217
     49 H22         8.0820    4.4067   -0.2645 H         1 <0>         0.1456
     50 H23        -5.1140   -1.1194    0.1081 H         1 <0>         0.4286
@<TRIPOS>BOND
     1    1    6 ar
     2    1    2 ar
     3    1   28 1
     4    2    3 ar
     5    2   29 1
     6    3    4 ar
     7    3   18 1
     8    4    5 ar
     9    4   13 1
    10    5    6 ar
    11    5   30 1
    12    6    7 1
    13    7   12 1
    14    7    8 1
    15    7   31 1
    16    8    9 1
    17    8   32 1
    18    8   33 1
    19    9   10 1
    20    9   34 1
    21    9   35 1
    22   10   11 1
    23   10   36 1
    24   10   50 1
    25   11   12 1
    26   11   37 1
    27   11   38 1
    28   12   39 1
    29   12   40 1
    30   13   17 1
    31   13   14 2
    32   14   15 1
    33   14   41 1
    34   15   16 1
    35   15   42 1
    36   15   43 1
    37   16   17 1
    38   16   44 1
    39   16   45 1
    40   17   46 1
    41   17   47 1
    42   18   19 am
    43   18   48 1
    44   19   20 2
    45   19   21 1
    46   21   25 2
    47   21   22 1
    48   22   23 1
    49   23   24 2
    50   23   26 1
    51   24   25 1
    52   24   49 1
    53   26   27 3
@<TRIPOS>MOLECULE
CHEMBL256950__1
   51    54     0     0     0
SMALL
USER_CHARGES

@<TRIPOS>ATOM
      1 C1         -0.0197    1.3952    0.0307 C.ar      1 <0>        -0.0974
      2 C2          1.1659    2.1049    0.0147 C.ar      1 <0>        -0.1144
      3 C3          2.3784    1.4317   -0.0044 C.ar      1 <0>         0.1652
      4 C4          2.3948    0.0299   -0.0073 C.ar      1 <0>        -0.0417
      5 C5          1.1910   -0.6739    0.0090 C.ar      1 <0>        -0.0773
      6 C6         -0.0068    0.0112    0.0279 C.ar      1 <0>        -0.1083
      7 C7         -1.3067   -0.7511    0.0455 C.3       1 <0>        -0.0515
      8 C8         -2.1360   -0.3778   -1.1867 C.3       1 <0>        -0.1430
      9 C9         -3.4866   -1.0940   -1.1218 C.3       1 <0>        -0.0072
     10 N1         -4.2025   -0.6870    0.0933 N.4       1 <0>        -0.5060
     11 C10        -3.4472   -1.1057    1.2802 C.3       1 <0>        -0.0073
     12 C11        -2.0950   -0.3900    1.3077 C.3       1 <0>        -0.1427
     13 C12         3.6800   -0.6977   -0.0280 C.2       1 <0>        -0.1279
     14 C13         4.4590   -0.8154   -1.0902 C.2       1 <0>        -0.1215
     15 C14         5.6945   -1.6217   -0.7634 C.3       1 <0>        -0.1047
     16 C15         5.7647   -1.6292    0.7809 C.3       1 <0>        -0.1262
     17 C16         4.2859   -1.4027    1.1632 C.3       1 <0>        -0.0842
     18 N2          3.5769    2.1468   -0.0210 N.am      1 <0>        -0.6435
     19 C17         3.6544    3.3169   -0.6854 C.2       1 <0>         0.6166
     20 O1          2.6600    3.7902   -1.2011 O.2       1 <0>        -0.5147
     21 C18         4.9454    4.0234   -0.7870 C.2       1 <0>         0.1514
     22 N3          6.0831    3.6110   -0.2792 N.2       1 <0>        -0.4003
     23 C19         7.0410    4.5053   -0.5682 C.2       1 <0>         0.0647
     24 C20         6.4584    5.5253   -1.2951 C.2       1 <0>         0.0697
     25 N4          5.1532    5.2125   -1.4311 N.pl3     1 <0>        -0.5107
     26 C21         8.4195    4.4181   -0.1905 C.1       1 <0>         0.2891
     27 N5          9.5131    4.3490    0.1092 N.1       1 <0>        -0.3847
     28 H1         -0.9615    1.9234    0.0500 H         1 <0>         0.1226
     29 H2          1.1483    3.1847    0.0166 H         1 <0>         0.1454
     30 H3          1.1961   -1.7539    0.0065 H         1 <0>         0.1297
     31 H4         -1.1016   -1.8216    0.0376 H         1 <0>         0.0961
     32 H5         -2.2961    0.7002   -1.2046 H         1 <0>         0.0913
     33 H6         -1.6053   -0.6827   -2.0886 H         1 <0>         0.1143
     34 H7         -4.0795   -0.8306   -1.9976 H         1 <0>         0.1340
     35 H8         -3.3254   -2.1719   -1.1041 H         1 <0>         0.1311
     36 H9         -4.3083    0.3164    0.1000 H         1 <0>         0.4277
     37 H10        -4.0110   -0.8510    2.1776 H         1 <0>         0.1341
     38 H11        -3.2868   -2.1833    1.2467 H         1 <0>         0.1311
     39 H12        -1.5351   -0.7036    2.1888 H         1 <0>         0.1147
     40 H13        -2.2543    0.6878    1.3415 H         1 <0>         0.0911
     41 H14         4.2417   -0.3924   -2.0598 H         1 <0>         0.1235
     42 H15         5.5957   -2.6384   -1.1436 H         1 <0>         0.0811
     43 H16         6.5807   -1.1439   -1.1811 H         1 <0>         0.0776
     44 H17         6.1238   -2.5896    1.1508 H         1 <0>         0.0774
     45 H18         6.3879   -0.8135    1.1475 H         1 <0>         0.0752
     46 H19         4.2143   -0.7758    2.0520 H         1 <0>         0.0706
     47 H20         3.7897   -2.3586    1.3312 H         1 <0>         0.0757
     48 H21         4.3542    1.8016    0.4455 H         1 <0>         0.4278
     49 H22         6.9537    6.4027   -1.6841 H         1 <0>         0.2116
     50 H23        -5.1141   -1.1194    0.1062 H         1 <0>         0.4319
     51 H24         4.4837    5.7361   -1.8985 H         1 <0>         0.4429
@<TRIPOS>BOND
     1    1    6 ar
     2    1    2 ar
     3    1   28 1
     4    2    3 ar
     5    2   29 1
     6    3    4 ar
     7    3   18 1
     8    4    5 ar
     9    4   13 1
    10    5    6 ar
    11    5   30 1
    12    6    7 1
    13    7   12 1
    14    7    8 1
    15    7   31 1
    16    8    9 1
    17    8   32 1
    18    8   33 1
    19    9   10 1
    20    9   34 1
    21    9   35 1
    22   10   11 1
    23   10   36 1
    24   10   50 1
    25   11   12 1
    26   11   37 1
    27   11   38 1
    28   12   39 1
    29   12   40 1
    30   13   17 1
    31   13   14 2
    32   14   15 1
    33   14   41 1
    34   15   16 1
    35   15   42 1
    36   15   43 1
    37   16   17 1
    38   16   44 1
    39   16   45 1
    40   17   46 1
    41   17   47 1
    42   18   19 am
    43   18   48 1
    44   19   20 2
    45   19   21 1
    46   21   25 1
    47   21   22 2
    48   22   23 1
    49   23   24 2
    50   23   26 1
    51   24   25 1
    52   24   49 1
    53   25   51 1
    54   26   27 3
@<TRIPOS>MOLECULE
CHEMBL521580
   77    81     0     0     0
SMALL
USER_CHARGES

@<TRIPOS>ATOM
      1 C1          0.6040    0.9979   -0.8496 C.3       1 <0>        -0.1430
      2 C2          0.5256   -0.5232   -0.7054 C.3       1 <0>        -0.0691
      3 C3         -0.9407   -0.9601   -0.6991 C.3       1 <0>        -0.1025
      4 C4         -1.0190   -2.4813   -0.5549 C.3       1 <0>        -0.1363
      5 C5         -0.3554   -2.9040    0.7573 C.3       1 <0>         0.1178
      6 C6          1.1109   -2.4671    0.7510 C.3       1 <0>        -0.1362
      7 C7          1.1893   -0.9459    0.6068 C.3       1 <0>        -0.1025
      8 N1         -0.4304   -4.3605    0.8954 N.pl3     1 <0>        -0.4644
      9 C8          0.1544   -5.1265   -0.0395 C.2       1 <0>         0.2564
     10 C9          0.1303   -6.5030    0.0156 C.2       1 <0>        -0.3176
     11 C10        -0.5611   -7.1583    1.1402 C.2       1 <0>         0.4536
     12 O1         -0.6114   -8.3722    1.2364 O.2       1 <0>        -0.4841
     13 C11        -1.1869   -6.2818    2.1408 C.ar      1 <0>        -0.3344
     14 C12        -1.0898   -4.8848    1.9766 C.ar      1 <0>         0.4693
     15 N2         -1.6548   -4.1004    2.8878 N.ar      1 <0>        -0.5933
     16 C13        -2.2882   -4.6254    3.9257 C.ar      1 <0>         0.6107
     17 N3         -2.3918   -5.9367    4.1106 N.ar      1 <0>        -0.5726
     18 C14        -1.8683   -6.7900    3.2475 C.ar      1 <0>         0.2844
     19 N4         -2.8627   -3.7767    4.8518 N.pl3     1 <0>        -0.6302
     20 C15        -3.4348   -4.2971    6.0165 C.ar      1 <0>         0.1736
     21 C16        -2.8732   -5.4090    6.6311 C.ar      1 <0>        -0.1038
     22 C17        -3.4408   -5.9206    7.7814 C.ar      1 <0>        -0.0864
     23 C18        -4.5674   -5.3274    8.3213 C.ar      1 <0>        -0.1127
     24 C19        -5.1290   -4.2204    7.7119 C.ar      1 <0>        -0.0929
     25 C20        -4.5627   -3.7000    6.5648 C.ar      1 <0>        -0.1403
     26 C21        -5.1846   -5.8890    9.5761 C.3       1 <0>        -0.0513
     27 C22        -6.6306   -6.3065    9.2930 C.3       1 <0>        -0.1409
     28 C23        -7.2759   -6.8014   10.5892 C.3       1 <0>        -0.0073
     29 N5         -7.2621   -5.7264   11.5885 N.4       1 <0>        -0.3851
     30 C24        -5.8768   -5.3703   11.9179 C.3       1 <0>        -0.0072
     31 C25        -5.1777   -4.8202   10.6729 C.3       1 <0>        -0.1409
     32 C26        -7.9517   -6.1804   12.8035 C.3       1 <0>        -0.0475
     33 C27         0.7833   -7.3052   -1.0309 C.2       1 <0>         0.5963
     34 O2          1.2609   -6.7586   -2.0070 O.2       1 <0>        -0.5343
     35 N6          0.8523   -8.6456   -0.9079 N.am      1 <0>        -0.5867
     36 O3          1.3774   -9.4275   -1.9652 O.3       1 <0>        -0.1469
     37 C28         1.3906  -10.8314   -1.6989 C.3       1 <0>         0.0007
     38 C29         1.2499   -1.1848   -1.8795 C.3       1 <0>        -0.1492
     39 H1          1.6486    1.3092   -0.8540 H         1 <0>         0.0582
     40 H2          0.1311    1.2991   -1.7844 H         1 <0>         0.0582
     41 H3          0.0880    1.4693   -0.0131 H         1 <0>         0.0552
     42 H4         -1.4567   -0.4888    0.1373 H         1 <0>         0.0677
     43 H5         -1.4135   -0.6589   -1.6339 H         1 <0>         0.0753
     44 H6         -2.0636   -2.7925   -0.5505 H         1 <0>         0.0728
     45 H7         -0.5030   -2.9526   -1.3914 H         1 <0>         0.0791
     46 H8         -0.8714   -2.4326    1.5937 H         1 <0>         0.1280
     47 H9          1.5837   -2.7683    1.6858 H         1 <0>         0.0728
     48 H10         1.6269   -2.9384   -0.0854 H         1 <0>         0.0787
     49 H11         2.2339   -0.6347    0.6024 H         1 <0>         0.0752
     50 H12         0.6733   -0.4746    1.4433 H         1 <0>         0.0678
     51 H13         0.6612   -4.6468   -0.8638 H         1 <0>         0.1895
     52 H14        -1.9561   -7.8554    3.4012 H         1 <0>         0.1931
     53 H15        -2.8693   -2.8196    4.6940 H         1 <0>         0.4284
     54 H16        -1.9938   -5.8731    6.2096 H         1 <0>         0.1382
     55 H17        -3.0046   -6.7851    8.2598 H         1 <0>         0.1277
     56 H18        -6.0088   -3.7595    8.1361 H         1 <0>         0.1223
     57 H19        -4.9990   -2.8325    6.0921 H         1 <0>         0.1293
     58 H20        -4.6122   -6.7553    9.9077 H         1 <0>         0.0958
     59 H21        -7.1885   -5.4510    8.9123 H         1 <0>         0.0896
     60 H22        -6.6402   -7.1067    8.5530 H         1 <0>         0.1147
     61 H23        -8.3054   -7.0997   10.3912 H         1 <0>         0.1314
     62 H24        -6.7174   -7.6570   10.9690 H         1 <0>         0.1292
     63 H25        -5.8734   -4.6119   12.7008 H         1 <0>         0.1312
     64 H26        -5.3481   -6.2563   12.2694 H         1 <0>         0.1291
     65 H27        -4.1487   -4.5581   10.9191 H         1 <0>         0.1141
     66 H28        -5.7054   -3.9339   10.3207 H         1 <0>         0.0897
     67 H29        -7.4421   -7.0565   13.2046 H         1 <0>         0.1216
     68 H30        -7.9420   -5.3827   13.5463 H         1 <0>         0.1236
     69 H31        -8.9825   -6.4388   12.5613 H         1 <0>         0.1237
     70 H32         0.5423   -9.0746   -0.0951 H         1 <0>         0.4187
     71 H33         1.8069  -11.3600   -2.5564 H         1 <0>         0.1141
     72 H34         2.0025  -11.0284   -0.8186 H         1 <0>         0.0561
     73 H35         0.3726  -11.1765   -1.5185 H         1 <0>         0.0569
     74 H36         2.2945   -0.8736   -1.8839 H         1 <0>         0.0590
     75 H37         1.1941   -2.2685   -1.7767 H         1 <0>         0.0574
     76 H38         0.7771   -0.8837   -2.8143 H         1 <0>         0.0591
     77 H39        -7.7371   -4.9173   11.2171 H         1 <0>         0.4240
@<TRIPOS>BOND
     1    1    2 1
     2    1   39 1
     3    1   40 1
     4    1   41 1
     5    2    7 1
     6    2    3 1
     7    2   38 1
     8    3    4 1
     9    3   42 1
    10    3   43 1
    11    4    5 1
    12    4   44 1
    13    4   45 1
    14    5    6 1
    15    5    8 1
    16    5   46 1
    17    6    7 1
    18    6   47 1
    19    6   48 1
    20    7   49 1
    21    7   50 1
    22    8   14 1
    23    8    9 1
    24    9   10 2
    25    9   51 1
    26   10   11 1
    27   10   33 1
    28   11   12 2
    29   11   13 1
    30   13   18 ar
    31   13   14 ar
    32   14   15 ar
    33   15   16 ar
    34   16   17 ar
    35   16   19 1
    36   17   18 ar
    37   18   52 1
    38   19   20 1
    39   19   53 1
    40   20   25 ar
    41   20   21 ar
    42   21   22 ar
    43   21   54 1
    44   22   23 ar
    45   22   55 1
    46   23   24 ar
    47   23   26 1
    48   24   25 ar
    49   24   56 1
    50   25   57 1
    51   26   31 1
    52   26   27 1
    53   26   58 1
    54   27   28 1
    55   27   59 1
    56   27   60 1
    57   28   29 1
    58   28   61 1
    59   28   62 1
    60   29   30 1
    61   29   32 1
    62   29   77 1
    63   30   31 1
    64   30   63 1
    65   30   64 1
    66   31   65 1
    67   31   66 1
    68   32   67 1
    69   32   68 1
    70   32   69 1
    71   33   34 2
    72   33   35 am
    73   35   36 1
    74   35   70 1
    75   36   37 1
    76   37   71 1
    77   37   72 1
    78   37   73 1
    79   38   74 1
    80   38   75 1
    81   38   76 1
@<TRIPOS>MOLECULE
CHEMBL153843
   43    45     0     0     0
SMALL
USER_CHARGES

@<TRIPOS>ATOM
      1 C1         -0.0045    1.2832    0.0417 C.ar      1 <0>        -0.1891
      2 C2          1.1419    2.0392   -0.1470 C.ar      1 <0>        -0.0333
      3 C3          2.3582    1.4232   -0.3576 C.ar      1 <0>        -0.2111
      4 C4          2.4413    0.0364   -0.3818 C.ar      1 <0>         0.2834
      5 C5          1.2824   -0.7320   -0.1905 C.ar      1 <0>        -0.2347
      6 C6          0.0579   -0.0927    0.0216 C.ar      1 <0>        -0.0327
      7 C7          1.3562   -2.2040   -0.2143 C.2       1 <0>         0.5756
      8 O1          2.4362   -2.7575   -0.2927 O.2       1 <0>        -0.5299
      9 N1          0.2267   -2.9365   -0.1490 N.am      1 <0>        -0.6686
     10 C8          0.3013   -4.3304   -0.0623 C.ar      1 <0>         0.1485
     11 C9         -0.6737   -5.1182   -0.6610 C.ar      1 <0>        -0.1137
     12 C10        -0.5972   -6.4941   -0.5734 C.ar      1 <0>        -0.0975
     13 C11         0.4487   -7.0880    0.1094 C.ar      1 <0>        -0.0883
     14 C12         1.4207   -6.3068    0.7065 C.ar      1 <0>        -0.1623
     15 C13         1.3532   -4.9300    0.6178 C.ar      1 <0>        -0.0726
     16 C14         2.5585   -6.9582    1.4495 C.3       1 <0>         0.5089
     17 F1          2.4144   -8.3487    1.3970 F         1 <0>        -0.1757
     18 F2          3.7722   -6.5925    0.8575 F         1 <0>        -0.1729
     19 F3          2.5452   -6.5381    2.7839 F         1 <0>        -0.1759
     20 N2          3.6644   -0.5861   -0.5945 N.pl3     1 <0>        -0.7211
     21 C15         4.8463    0.2145   -0.9234 C.3       1 <0>         0.1558
     22 C16         6.0347   -0.6947   -1.1034 C.ar      1 <0>        -0.0633
     23 C17         6.8445   -1.0254   -0.0277 C.ar      1 <0>        -0.1533
     24 C18         7.9257   -1.8620   -0.2308 C.ar      1 <0>         0.0999
     25 N3          8.1903   -2.3432   -1.4298 N.ar      1 <0>        -0.4782
     26 C19         7.4421   -2.0500   -2.4753 C.ar      1 <0>         0.0997
     27 C20         6.3408   -1.2248   -2.3474 C.ar      1 <0>        -0.1530
     28 H1         -0.9509    1.7755    0.2100 H         1 <0>         0.1274
     29 H2          1.0825    3.1174   -0.1294 H         1 <0>         0.1286
     30 H3          3.2467    2.0194   -0.5042 H         1 <0>         0.1298
     31 H4         -0.8385   -0.6768    0.1691 H         1 <0>         0.1236
     32 H5         -0.6379   -2.4969   -0.1623 H         1 <0>         0.4152
     33 H6         -1.4908   -4.6550   -1.1941 H         1 <0>         0.1372
     34 H7         -1.3550   -7.1072   -1.0384 H         1 <0>         0.1417
     35 H8          0.5060   -8.1644    0.1768 H         1 <0>         0.1415
     36 H9          2.1154   -4.3204    1.0802 H         1 <0>         0.1454
     37 H10         3.7360   -1.5510   -0.5253 H         1 <0>         0.4213
     38 H11         4.6668    0.7649   -1.8470 H         1 <0>         0.0766
     39 H12         5.0457    0.9173   -0.1145 H         1 <0>         0.0768
     40 H13         6.6334   -0.6340    0.9565 H         1 <0>         0.1367
     41 H14         8.5614   -2.1245    0.6019 H         1 <0>         0.1589
     42 H15         7.6903   -2.4629   -3.4419 H         1 <0>         0.1586
     43 H16         5.7289   -0.9924   -3.2065 H         1 <0>         0.1361
@<TRIPOS>BOND
     1    1    6 ar
     2    1    2 ar
     3    1   28 1
     4    2    3 ar
     5    2   29 1
     6    3    4 ar
     7    3   30 1
     8    4    5 ar
     9    4   20 1
    10    5    6 ar
    11    5    7 1
    12    6   31 1
    13    7    8 2
    14    7    9 am
    15    9   10 1
    16    9   32 1
    17   10   15 ar
    18   10   11 ar
    19   11   12 ar
    20   11   33 1
    21   12   13 ar
    22   12   34 1
    23   13   14 ar
    24   13   35 1
    25   14   15 ar
    26   14   16 1
    27   15   36 1
    28   16   17 1
    29   16   18 1
    30   16   19 1
    31   20   21 1
    32   20   37 1
    33   21   22 1
    34   21   38 1
    35   21   39 1
    36   22   27 ar
    37   22   23 ar
    38   23   24 ar
    39   23   40 1
    40   24   25 ar
    41   24   41 1
    42   25   26 ar
    43   26   27 ar
    44   26   42 1
    45   27   43 1
@<TRIPOS>MOLECULE
CHEMBL253864
   37    39     0     0     0
SMALL
USER_CHARGES

@<TRIPOS>ATOM
      1 C1         -0.0327    1.3723   -0.0117 C.ar      1 <0>        -0.1055
      2 C2          1.1496    2.0896   -0.0251 C.ar      1 <0>        -0.1212
      3 C3          2.3636    1.4289   -0.0376 C.ar      1 <0>        -0.1084
      4 C4          2.3986    0.0423   -0.0363 C.ar      1 <0>         0.1549
      5 C5          1.2060   -0.6812   -0.0224 C.ar      1 <0>         0.1272
      6 C6         -0.0075   -0.0097   -0.0103 C.ar      1 <0>        -0.1141
      7 N1          1.2339   -2.0813   -0.0214 N.am      1 <0>        -0.6447
      8 C7          0.2946   -2.7736    0.6530 C.2       1 <0>         0.5956
      9 O1         -0.6233   -2.1861    1.1927 O.2       1 <0>        -0.4881
     10 C8          0.3798   -4.2434    0.7363 C.2       1 <0>         0.0132
     11 C9         -0.4977   -5.0638    1.3761 C.2       1 <0>        -0.1951
     12 C10        -0.0512   -6.3860    1.2140 C.2       1 <0>         0.0767
     13 N2          1.0441   -6.3642    0.5094 N.2       1 <0>        -0.2893
     14 O2          1.3374   -5.0169    0.1878 O.3       1 <0>        -0.0712
     15 N3          3.6260   -0.6286   -0.0495 N.pl3     1 <0>        -0.6773
     16 C11         4.2714   -0.9838   -1.3207 C.3       1 <0>         0.1402
     17 C12         5.7016   -0.4349   -1.3179 C.3       1 <0>        -0.1356
     18 C13         6.4367   -0.9442   -0.0759 C.3       1 <0>        -0.1166
     19 C14         5.7243   -0.4425    1.1822 C.3       1 <0>        -0.1364
     20 C15         4.2973   -0.9861    1.2076 C.3       1 <0>         0.1457
     21 H1         -0.9785    1.8935    0.0022 H         1 <0>         0.1283
     22 H2          1.1242    3.1693   -0.0261 H         1 <0>         0.1257
     23 H3          3.2849    1.9924   -0.0488 H         1 <0>         0.1266
     24 H4         -0.9328   -0.5666    0.0006 H         1 <0>         0.1404
     25 H5          1.9293   -2.5528   -0.5061 H         1 <0>         0.4188
     26 H6         -1.3811   -4.7531    1.9142 H         1 <0>         0.1754
     27 H7         -0.5334   -7.2691    1.6065 H         1 <0>         0.2119
     28 H8          4.2964   -2.0683   -1.4274 H         1 <0>         0.0509
     29 H9          3.7137   -0.5459   -2.1486 H         1 <0>         0.0696
     30 H10         6.2229   -0.7732   -2.2134 H         1 <0>         0.0681
     31 H11         5.6732    0.6546   -1.3025 H         1 <0>         0.0642
     32 H12         6.4432   -2.0342   -0.0793 H         1 <0>         0.0615
     33 H13         7.4623   -0.5751   -0.0841 H         1 <0>         0.0608
     34 H14         6.2617   -0.7861    2.0661 H         1 <0>         0.0679
     35 H15         5.6956    0.6471    1.1740 H         1 <0>         0.0638
     36 H16         3.7566   -0.5497    2.0475 H         1 <0>         0.0672
     37 H17         4.3244   -2.0707    1.3118 H         1 <0>         0.0490
@<TRIPOS>BOND
     1    1    6 ar
     2    1    2 ar
     3    1   21 1
     4    2    3 ar
     5    2   22 1
     6    3    4 ar
     7    3   23 1
     8    4    5 ar
     9    4   15 1
    10    5    6 ar
    11    5    7 1
    12    6   24 1
    13    7    8 am
    14    7   25 1
    15    8    9 2
    16    8   10 1
    17   10   14 1
    18   10   11 2
    19   11   12 1
    20   11   26 1
    21   12   13 2
    22   12   27 1
    23   13   14 1
    24   15   20 1
    25   15   16 1
    26   16   17 1
    27   16   28 1
    28   16   29 1
    29   17   18 1
    30   17   30 1
    31   17   31 1
    32   18   19 1
    33   18   32 1
    34   18   33 1
    35   19   20 1
    36   19   34 1
    37   19   35 1
    38   20   36 1
    39   20   37 1
@<TRIPOS>MOLECULE
CHEMBL429855
   57    60     0     0     0
SMALL
USER_CHARGES

@<TRIPOS>ATOM
      1 C1         -0.0327    1.5615    0.0530 C.3       1 <0>        -0.1746
      2 C2         -0.0066    0.0548    0.0351 C.2       1 <0>         0.5115
      3 O1          1.0540   -0.5331    0.0193 O.2       1 <0>        -0.5488
      4 N1         -1.1619   -0.6392    0.0367 N.am      1 <0>        -0.6139
      5 C3         -2.4546    0.0590    0.0496 C.3       1 <0>         0.1064
      6 C4         -3.2907   -0.4731    1.2177 C.3       1 <0>        -0.1285
      7 C5         -3.3998   -1.9958    1.1099 C.3       1 <0>        -0.0385
      8 C6         -2.0033   -2.6161    1.1935 C.3       1 <0>        -0.1268
      9 C7         -1.1526   -2.1084    0.0194 C.3       1 <0>         0.1099
     10 C8         -4.2502   -2.5194    2.2386 C.ar      1 <0>        -0.1081
     11 C9         -3.8674   -2.2967    3.5503 C.ar      1 <0>        -0.0879
     12 C10        -4.6388   -2.7718    4.5931 C.ar      1 <0>        -0.1219
     13 C11        -5.8049   -3.4763    4.3304 C.ar      1 <0>         0.1823
     14 C12        -6.1952   -3.7030    3.0034 C.ar      1 <0>        -0.0963
     15 C13        -5.4094   -3.2135    1.9600 C.ar      1 <0>        -0.0811
     16 C14        -7.4345   -4.4516    2.7115 C.2       1 <0>        -0.0944
     17 C15        -7.3629   -5.7314    2.8974 C.2       1 <0>        -0.1061
     18 C16        -8.4504   -6.7376    2.6600 C.3       1 <0>        -0.5684
     19 S1        -10.0531   -5.8820    2.5900 S.o2      1 <0>         2.4080
     20 O2        -10.9820   -6.7092    1.9028 O.2       1 <0>        -0.9447
     21 O3        -10.3733   -5.4063    3.8901 O.2       1 <0>        -0.9092
     22 C17        -9.6423   -4.4595    1.5307 C.3       1 <0>        -0.6000
     23 C18        -8.5838   -3.6223    2.2524 C.3       1 <0>        -0.0669
     24 N2         -6.5852   -3.9575    5.3825 N.am      1 <0>        -0.6674
     25 C19        -5.9967   -4.3874    6.5162 C.2       1 <0>         0.6279
     26 O4         -4.7935   -4.2804    6.6549 O.2       1 <0>        -0.5302
     27 C20        -6.8130   -4.9883    7.5896 C.2       1 <0>         0.0465
     28 N3         -6.3385   -5.4535    8.7790 N.2       1 <0>        -0.4619
     29 C21        -7.4166   -5.9266    9.4830 C.2       1 <0>        -0.0412
     30 C22        -8.5250   -5.7281    8.6819 C.2       1 <0>        -0.0115
     31 N4         -8.1188   -5.1565    7.5551 N.2       1 <0>        -0.5120
     32 C23        -7.3972   -6.5114   10.7900 C.1       1 <0>         0.3349
     33 N5         -7.3818   -6.9752   11.8269 N.1       1 <0>        -0.4897
     34 H1          0.9885    1.9427    0.0488 H         1 <0>         0.0907
     35 H2         -0.5602    1.9262   -0.8284 H         1 <0>         0.0870
     36 H3         -0.5453    1.9054    0.9514 H         1 <0>         0.0888
     37 H4         -2.2907    1.1292    0.1752 H         1 <0>         0.0872
     38 H5         -2.9786   -0.1249   -0.8884 H         1 <0>         0.0705
     39 H6         -2.8098   -0.2086    2.1595 H         1 <0>         0.0716
     40 H7         -4.2875   -0.0335    1.1816 H         1 <0>         0.0799
     41 H8         -3.8583   -2.2604    0.1571 H         1 <0>         0.0777
     42 H9         -1.5345   -2.3314    2.1355 H         1 <0>         0.0709
     43 H10        -2.0837   -3.7019    1.1402 H         1 <0>         0.0782
     44 H11        -1.5726   -2.4654   -0.9210 H         1 <0>         0.0669
     45 H12        -0.1293   -2.4686    0.1251 H         1 <0>         0.0924
     46 H13        -2.9605   -1.7488    3.7595 H         1 <0>         0.1197
     47 H14        -4.3337   -2.5950    5.6140 H         1 <0>         0.1441
     48 H15        -5.7061   -3.3812    0.9352 H         1 <0>         0.1228
     49 H16        -6.4210   -6.1148    3.2612 H         1 <0>         0.1248
     50 H17        -8.2708   -7.2520    1.7159 H         1 <0>         0.1444
     51 H18        -8.4599   -7.4623    3.4741 H         1 <0>         0.1486
     52 H19        -9.2498   -4.8122    0.5769 H         1 <0>         0.1329
     53 H20       -10.5346   -3.8567    1.3618 H         1 <0>         0.1381
     54 H21        -9.0387   -3.1380    3.1165 H         1 <0>         0.1017
     55 H22        -8.2169   -2.8549    1.5708 H         1 <0>         0.0986
     56 H23        -7.5512   -3.9825    5.2978 H         1 <0>         0.4211
     57 H24        -9.5433   -5.9881    8.9308 H         1 <0>         0.1439
@<TRIPOS>BOND
     1    1    2 1
     2    1   34 1
     3    1   35 1
     4    1   36 1
     5    2    3 2
     6    2    4 am
     7    4    9 1
     8    4    5 1
     9    5    6 1
    10    5   37 1
    11    5   38 1
    12    6    7 1
    13    6   39 1
    14    6   40 1
    15    7    8 1
    16    7   10 1
    17    7   41 1
    18    8    9 1
    19    8   42 1
    20    8   43 1
    21    9   44 1
    22    9   45 1
    23   10   15 ar
    24   10   11 ar
    25   11   12 ar
    26   11   46 1
    27   12   13 ar
    28   12   47 1
    29   13   14 ar
    30   13   24 1
    31   14   15 ar
    32   14   16 1
    33   15   48 1
    34   16   23 1
    35   16   17 2
    36   17   18 1
    37   17   49 1
    38   18   19 1
    39   18   50 1
    40   18   51 1
    41   19   20 2
    42   19   21 2
    43   19   22 1
    44   22   23 1
    45   22   52 1
    46   22   53 1
    47   23   54 1
    48   23   55 1
    49   24   25 am
    50   24   56 1
    51   25   26 2
    52   25   27 1
    53   27   31 2
    54   27   28 1
    55   28   29 1
    56   29   30 2
    57   29   32 1
    58   30   31 1
    59   30   57 1
    60   32   33 3
@<TRIPOS>MOLECULE
CHEMBL429855__1
   58    61     0     0     0
SMALL
USER_CHARGES

@<TRIPOS>ATOM
      1 C1         -0.0327    1.5616    0.0531 C.3       1 <0>        -0.1753
      2 C2         -0.0066    0.0549    0.0352 C.2       1 <0>         0.5122
      3 O1          1.0540   -0.5331    0.0193 O.2       1 <0>        -0.5453
      4 N1         -1.1619   -0.6391    0.0368 N.am      1 <0>        -0.6160
      5 C3         -2.4546    0.0591    0.0497 C.3       1 <0>         0.1058
      6 C4         -3.2907   -0.4730    1.2178 C.3       1 <0>        -0.1280
      7 C5         -3.3999   -1.9957    1.1100 C.3       1 <0>        -0.0454
      8 C6         -2.0033   -2.6161    1.1935 C.3       1 <0>        -0.1256
      9 C7         -1.1527   -2.1083    0.0194 C.3       1 <0>         0.1092
     10 C8         -4.2502   -2.5193    2.2386 C.ar      1 <0>        -0.0845
     11 C9         -3.8674   -2.2967    3.5504 C.ar      1 <0>        -0.0894
     12 C10        -4.6386   -2.7723    4.5932 C.ar      1 <0>        -0.1127
     13 C11        -5.8042   -3.4775    4.3304 C.ar      1 <0>         0.1525
     14 C12        -6.1946   -3.7040    3.0034 C.ar      1 <0>        -0.0763
     15 C13        -5.4095   -3.2134    1.9600 C.ar      1 <0>        -0.0819
     16 C14        -7.4331   -4.4538    2.7116 C.2       1 <0>        -0.0991
     17 C15        -7.3601   -5.7336    2.8969 C.2       1 <0>        -0.1056
     18 C16        -8.4467   -6.7409    2.6598 C.3       1 <0>        -0.5737
     19 S1        -10.0502   -5.8868    2.5904 S.o2      1 <0>         2.4085
     20 O2        -10.9786   -6.7148    1.9035 O.2       1 <0>        -0.9359
     21 O3        -10.3705   -5.4116    3.8908 O.2       1 <0>        -0.9178
     22 C17        -9.6412   -4.4638    1.5311 C.3       1 <0>        -0.6001
     23 C18        -8.5835   -3.6256    2.2530 C.3       1 <0>        -0.0692
     24 N2         -6.5841   -3.9595    5.3826 N.am      1 <0>        -0.6444
     25 C19        -5.9952   -4.3893    6.5161 C.2       1 <0>         0.6126
     26 O4         -4.7919   -4.2815    6.6547 O.2       1 <0>        -0.5126
     27 C20        -6.8103   -4.9906    7.5886 C.2       1 <0>         0.1538
     28 N3         -8.1105   -5.1649    7.5525 N.2       1 <0>        -0.3946
     29 C21        -8.5071   -5.7382    8.6992 C.2       1 <0>         0.0624
     30 C22        -7.3865   -5.9268    9.4846 C.2       1 <0>         0.0643
     31 N4         -6.3332   -5.4629    8.7809 N.pl3     1 <0>        -0.5117
     32 C23        -9.8509   -6.0906    9.0465 C.1       1 <0>         0.2931
     33 N5        -10.9169   -6.3703    9.3220 N.1       1 <0>        -0.3901
     34 H1          0.9885    1.9427    0.0490 H         1 <0>         0.0925
     35 H2         -0.5602    1.9264   -0.8282 H         1 <0>         0.0883
     36 H3         -0.5452    1.9054    0.9515 H         1 <0>         0.0884
     37 H4         -2.2906    1.1293    0.1753 H         1 <0>         0.0897
     38 H5         -2.9786   -0.1248   -0.8883 H         1 <0>         0.0720
     39 H6         -2.8098   -0.2085    2.1596 H         1 <0>         0.0716
     40 H7         -4.2875   -0.0333    1.1818 H         1 <0>         0.0805
     41 H8         -3.8583   -2.2603    0.1572 H         1 <0>         0.0823
     42 H9         -1.5346   -2.3314    2.1355 H         1 <0>         0.0707
     43 H10        -2.0838   -3.7018    1.1401 H         1 <0>         0.0781
     44 H11        -1.5726   -2.4652   -0.9209 H         1 <0>         0.0684
     45 H12        -0.1294   -2.4685    0.1251 H         1 <0>         0.0943
     46 H13        -2.9607   -1.7486    3.7595 H         1 <0>         0.1266
     47 H14        -4.3337   -2.5953    5.6140 H         1 <0>         0.1432
     48 H15        -5.7063   -3.3807    0.9352 H         1 <0>         0.1305
     49 H16        -6.4176   -6.1162    3.2600 H         1 <0>         0.1245
     50 H17        -8.2669   -7.2550    1.7156 H         1 <0>         0.1495
     51 H18        -8.4552   -7.4657    3.4739 H         1 <0>         0.1472
     52 H19        -9.2487   -4.8160    0.5772 H         1 <0>         0.1367
     53 H20       -10.5341   -3.8618    1.3626 H         1 <0>         0.1422
     54 H21        -9.0386   -3.1421    3.1175 H         1 <0>         0.1020
     55 H22        -8.2175   -2.8575    1.5717 H         1 <0>         0.1026
     56 H23        -7.5501   -3.9852    5.2981 H         1 <0>         0.4271
     57 H24        -7.3584   -6.3655   10.4711 H         1 <0>         0.2095
     58 H25        -5.4069   -5.4619    9.0687 H         1 <0>         0.4421
@<TRIPOS>BOND
     1    1    2 1
     2    1   34 1
     3    1   35 1
     4    1   36 1
     5    2    3 2
     6    2    4 am
     7    4    9 1
     8    4    5 1
     9    5    6 1
    10    5   37 1
    11    5   38 1
    12    6    7 1
    13    6   39 1
    14    6   40 1
    15    7    8 1
    16    7   10 1
    17    7   41 1
    18    8    9 1
    19    8   42 1
    20    8   43 1
    21    9   44 1
    22    9   45 1
    23   10   15 ar
    24   10   11 ar
    25   11   12 ar
    26   11   46 1
    27   12   13 ar
    28   12   47 1
    29   13   14 ar
    30   13   24 1
    31   14   15 ar
    32   14   16 1
    33   15   48 1
    34   16   23 1
    35   16   17 2
    36   17   18 1
    37   17   49 1
    38   18   19 1
    39   18   50 1
    40   18   51 1
    41   19   20 2
    42   19   21 2
    43   19   22 1
    44   22   23 1
    45   22   52 1
    46   22   53 1
    47   23   54 1
    48   23   55 1
    49   24   25 am
    50   24   56 1
    51   25   26 2
    52   25   27 1
    53   27   31 1
    54   27   28 2
    55   28   29 1
    56   29   30 2
    57   29   32 1
    58   30   31 1
    59   30   57 1
    60   31   58 1
    61   32   33 3
@<TRIPOS>MOLECULE
CHEMBL480815
   65    68     0     0     0
SMALL
USER_CHARGES

@<TRIPOS>ATOM
      1 C1         -4.5756   -0.5210    1.4251 C.3       1 <0>        -0.1591
      2 C2         -3.4775   -1.5411    1.1175 C.3       1 <0>         0.0473
      3 O1         -2.9442   -2.0505    2.3415 O.3       1 <0>        -0.2962
      4 C3         -1.9523   -2.9737    2.2451 C.ar      1 <0>         0.1928
      5 C4         -1.5074   -3.3677    1.0043 C.ar      1 <0>        -0.2202
      6 C5         -0.4830   -4.3205    0.8981 C.ar      1 <0>         0.1659
      7 C6          0.0809   -4.8653    2.0768 C.ar      1 <0>        -0.0730
      8 C7         -0.3853   -4.4511    3.3329 C.ar      1 <0>        -0.1332
      9 C8         -1.3883   -3.5112    3.4124 C.ar      1 <0>         0.2226
     10 N1         -1.8515   -3.0931    4.6646 N.pl3     1 <0>        -0.7214
     11 C9         -1.2659   -3.6512    5.8860 C.3       1 <0>         0.0914
     12 C10        -1.9465   -3.0304    7.1076 C.3       1 <0>        -0.0221
     13 N2         -1.3593   -3.5901    8.3324 N.4       1 <0>        -0.3793
     14 C11        -1.6530   -5.0265    8.4019 C.3       1 <0>        -0.0148
     15 C12        -0.9754   -5.6305    9.6337 C.3       1 <0>        -0.1459
     16 C13        -1.5057   -4.9380   10.8924 C.3       1 <0>        -0.1410
     17 C14        -1.2605   -3.4308   10.7756 C.3       1 <0>        -0.1469
     18 C15        -1.9276   -2.9083    9.5015 C.3       1 <0>        -0.0061
     19 C16         1.1136   -5.8257    1.9638 C.ar      1 <0>         0.3718
     20 C17         1.5292   -6.1915    0.6742 C.ar      1 <0>        -0.2023
     21 C18         0.9130   -5.5989   -0.4400 C.ar      1 <0>         0.2251
     22 N3         -0.0398   -4.7129   -0.3061 N.ar      1 <0>        -0.4527
     23 C19         2.5993   -7.1849    0.4915 C.2       1 <0>         0.5646
     24 O2          3.0601   -7.7667    1.4553 O.2       1 <0>        -0.4857
     25 N4          3.0688   -7.4501   -0.7437 N.am      1 <0>        -0.8394
     26 N5          1.6932   -6.3835    3.0839 N.pl3     1 <0>        -0.6890
     27 C20         1.3264   -7.6687    3.4941 C.ar      1 <0>         0.2338
     28 C21         0.4874   -8.4400    2.6999 C.ar      1 <0>        -0.1633
     29 C22         0.1270   -9.7095    3.1071 C.ar      1 <0>        -0.0518
     30 C23         0.6000  -10.2143    4.3045 C.ar      1 <0>        -0.1290
     31 C24         1.4356   -9.4496    5.0994 C.ar      1 <0>         0.0114
     32 C25         1.8051   -8.1796    4.6946 C.ar      1 <0>        -0.0860
     33 Cl1         2.8596   -7.2228    5.6878 Cl        1 <0>        -0.0436
     34 Cl2         2.0260  -10.0872    6.6023 Cl        1 <0>        -0.0281
     35 H1         -4.1567    0.2992    2.0081 H         1 <0>         0.0732
     36 H2         -4.9824   -0.1324    0.4914 H         1 <0>         0.0948
     37 H3         -5.3701   -1.0031    1.9947 H         1 <0>         0.0732
     38 H4         -3.8964   -2.3612    0.5345 H         1 <0>         0.0788
     39 H5         -2.6830   -1.0590    0.5478 H         1 <0>         0.0786
     40 H6         -1.9464   -2.9444    0.1130 H         1 <0>         0.1709
     41 H7          0.0428   -4.8650    4.2339 H         1 <0>         0.1603
     42 H8         -2.5604   -2.4336    4.7240 H         1 <0>         0.4236
     43 H9         -1.4122   -4.7313    5.8984 H         1 <0>         0.0918
     44 H10        -0.1992   -3.4287    5.9121 H         1 <0>         0.0914
     45 H11        -1.8002   -1.9503    7.0953 H         1 <0>         0.1422
     46 H12        -3.0132   -3.2530    7.0816 H         1 <0>         0.1409
     47 H13        -2.7308   -5.1736    8.4719 H         1 <0>         0.1327
     48 H14        -1.2779   -5.5175    7.5040 H         1 <0>         0.1280
     49 H15        -1.1961   -6.6967    9.6845 H         1 <0>         0.1156
     50 H16         0.1026   -5.4843    9.5646 H         1 <0>         0.0894
     51 H17        -2.5748   -5.1269   10.9894 H         1 <0>         0.0836
     52 H18        -0.9851   -5.3251   11.7683 H         1 <0>         0.0980
     53 H19        -1.6851   -2.9247   11.6426 H         1 <0>         0.1167
     54 H20        -0.1885   -3.2389   10.7302 H         1 <0>         0.0893
     55 H21        -1.7552   -1.8355    9.4153 H         1 <0>         0.1329
     56 H22        -2.9995   -3.1005    9.5481 H         1 <0>         0.1318
     57 H23         1.2339   -5.8816   -1.4317 H         1 <0>         0.2140
     58 H24         2.7014   -6.9862   -1.5122 H         1 <0>         0.3992
     59 H25         3.7743   -8.1049   -0.8641 H         1 <0>         0.4248
     60 H26         2.3552   -5.8843    3.5871 H         1 <0>         0.4307
     61 H27         0.1169   -8.0470    1.7646 H         1 <0>         0.1232
     62 H28        -0.5256  -10.3088    2.4896 H         1 <0>         0.1459
     63 H29         0.3162  -11.2074    4.6202 H         1 <0>         0.1499
     64 H30        -0.3597   -3.4536    8.3177 H         1 <0>         0.4247
     65 H31        -0.4388   -4.3279   -1.1021 H         1 <0>         0.4533
@<TRIPOS>BOND
     1    1    2 1
     2    1   35 1
     3    1   36 1
     4    1   37 1
     5    2    3 1
     6    2   38 1
     7    2   39 1
     8    3    4 1
     9    4    9 ar
    10    4    5 ar
    11    5    6 ar
    12    5   40 1
    13    6   22 ar
    14    6    7 ar
    15    7    8 ar
    16    7   19 ar
    17    8    9 ar
    18    8   41 1
    19    9   10 1
    20   10   11 1
    21   10   42 1
    22   11   12 1
    23   11   43 1
    24   11   44 1
    25   12   13 1
    26   12   45 1
    27   12   46 1
    28   13   18 1
    29   13   14 1
    30   13   64 1
    31   14   15 1
    32   14   47 1
    33   14   48 1
    34   15   16 1
    35   15   49 1
    36   15   50 1
    37   16   17 1
    38   16   51 1
    39   16   52 1
    40   17   18 1
    41   17   53 1
    42   17   54 1
    43   18   55 1
    44   18   56 1
    45   19   20 ar
    46   19   26 1
    47   20   21 ar
    48   20   23 1
    49   21   22 ar
    50   21   57 1
    51   22   65 1
    52   23   24 2
    53   23   25 am
    54   25   58 1
    55   25   59 1
    56   26   27 1
    57   26   60 1
    58   27   32 ar
    59   27   28 ar
    60   28   29 ar
    61   28   61 1
    62   29   30 ar
    63   29   62 1
    64   30   31 ar
    65   30   63 1
    66   31   32 ar
    67   31   34 1
    68   32   33 1
@<TRIPOS>MOLECULE
CHEMBL480815__1
   64    67     0     0     0
SMALL
USER_CHARGES

@<TRIPOS>ATOM
      1 C1         -4.5756   -0.5210    1.4251 C.3       1 <0>        -0.1534
      2 C2         -3.4775   -1.5411    1.1175 C.3       1 <0>         0.0528
      3 O1         -2.9442   -2.0505    2.3415 O.3       1 <0>        -0.3160
      4 C3         -1.9523   -2.9737    2.2451 C.ar      1 <0>         0.1252
      5 C4         -1.5074   -3.3677    1.0043 C.ar      1 <0>        -0.1625
      6 C5         -0.4830   -4.3205    0.8981 C.ar      1 <0>         0.1598
      7 C6          0.0809   -4.8653    2.0768 C.ar      1 <0>        -0.0951
      8 C7         -0.3853   -4.4511    3.3329 C.ar      1 <0>        -0.1478
      9 C8         -1.3883   -3.5112    3.4124 C.ar      1 <0>         0.2007
     10 N1         -1.8515   -3.0931    4.6646 N.pl3     1 <0>        -0.7378
     11 C9         -1.2659   -3.6512    5.8860 C.3       1 <0>         0.1021
     12 C10        -1.9465   -3.0304    7.1076 C.3       1 <0>        -0.0207
     13 N2         -1.3593   -3.5901    8.3324 N.4       1 <0>        -0.3789
     14 C11        -1.6530   -5.0265    8.4019 C.3       1 <0>        -0.0149
     15 C12        -0.9754   -5.6305    9.6337 C.3       1 <0>        -0.1456
     16 C13        -1.5057   -4.9380   10.8924 C.3       1 <0>        -0.1394
     17 C14        -1.2605   -3.4308   10.7756 C.3       1 <0>        -0.1462
     18 C15        -1.9276   -2.9083    9.5015 C.3       1 <0>        -0.0056
     19 C16         1.1136   -5.8257    1.9638 C.ar      1 <0>         0.2666
     20 C17         1.5292   -6.1915    0.6742 C.ar      1 <0>        -0.2039
     21 C18         0.9130   -5.5989   -0.4400 C.ar      1 <0>         0.1640
     22 N3         -0.0398   -4.7129   -0.3061 N.ar      1 <0>        -0.4652
     23 C19         2.5993   -7.1849    0.4915 C.2       1 <0>         0.5640
     24 O2          3.0601   -7.7667    1.4553 O.2       1 <0>        -0.5165
     25 N4          3.0688   -7.4501   -0.7437 N.am      1 <0>        -0.8476
     26 N5          1.6932   -6.3835    3.0839 N.pl3     1 <0>        -0.6787
     27 C20         1.3264   -7.6687    3.4941 C.ar      1 <0>         0.2614
     28 C21         0.4874   -8.4400    2.6999 C.ar      1 <0>        -0.1631
     29 C22         0.1270   -9.7095    3.1071 C.ar      1 <0>        -0.0538
     30 C23         0.6000  -10.2143    4.3045 C.ar      1 <0>        -0.1493
     31 C24         1.4356   -9.4496    5.0994 C.ar      1 <0>         0.0131
     32 C25         1.8051   -8.1796    4.6946 C.ar      1 <0>        -0.1011
     33 Cl1         2.8596   -7.2228    5.6878 Cl        1 <0>        -0.0573
     34 Cl2         2.0260  -10.0872    6.6023 Cl        1 <0>        -0.0469
     35 H1         -4.1567    0.2992    2.0081 H         1 <0>         0.0669
     36 H2         -4.9824   -0.1324    0.4914 H         1 <0>         0.0857
     37 H3         -5.3701   -1.0031    1.9947 H         1 <0>         0.0669
     38 H4         -3.8964   -2.3612    0.5345 H         1 <0>         0.0706
     39 H5         -2.6830   -1.0590    0.5478 H         1 <0>         0.0705
     40 H6         -1.9464   -2.9444    0.1130 H         1 <0>         0.1530
     41 H7          0.0428   -4.8650    4.2339 H         1 <0>         0.1360
     42 H8         -2.5604   -2.4336    4.7240 H         1 <0>         0.4144
     43 H9         -1.4122   -4.7313    5.8984 H         1 <0>         0.0822
     44 H10        -0.1992   -3.4287    5.9121 H         1 <0>         0.0814
     45 H11        -1.8002   -1.9503    7.0953 H         1 <0>         0.1389
     46 H12        -3.0132   -3.2530    7.0816 H         1 <0>         0.1376
     47 H13        -2.7308   -5.1736    8.4719 H         1 <0>         0.1310
     48 H14        -1.2779   -5.5175    7.5040 H         1 <0>         0.1314
     49 H15        -1.1961   -6.6967    9.6845 H         1 <0>         0.1142
     50 H16         0.1026   -5.4843    9.5646 H         1 <0>         0.0890
     51 H17        -2.5748   -5.1269   10.9894 H         1 <0>         0.0821
     52 H18        -0.9851   -5.3251   11.7683 H         1 <0>         0.0953
     53 H19        -1.6851   -2.9247   11.6426 H         1 <0>         0.1135
     54 H20        -0.1885   -3.2389   10.7302 H         1 <0>         0.0884
     55 H21        -1.7552   -1.8355    9.4153 H         1 <0>         0.1311
     56 H22        -2.9995   -3.1005    9.5481 H         1 <0>         0.1299
     57 H23         1.2339   -5.8816   -1.4317 H         1 <0>         0.1665
     58 H24         2.7014   -6.9862   -1.5122 H         1 <0>         0.4011
     59 H25         3.7743   -8.1049   -0.8641 H         1 <0>         0.4108
     60 H26         2.3552   -5.8843    3.5871 H         1 <0>         0.4163
     61 H27         0.1169   -8.0470    1.7646 H         1 <0>         0.1275
     62 H28        -0.5256  -10.3088    2.4896 H         1 <0>         0.1392
     63 H29         0.3162  -11.2074    4.6202 H         1 <0>         0.1416
     64 H30        -0.3597   -3.4536    8.3177 H         1 <0>         0.4243
@<TRIPOS>BOND
     1    1    2 1
     2    1   35 1
     3    1   36 1
     4    1   37 1
     5    2    3 1
     6    2   38 1
     7    2   39 1
     8    3    4 1
     9    4    9 ar
    10    4    5 ar
    11    5    6 ar
    12    5   40 1
    13    6   22 ar
    14    6    7 ar
    15    7    8 ar
    16    7   19 ar
    17    8    9 ar
    18    8   41 1
    19    9   10 1
    20   10   11 1
    21   10   42 1
    22   11   12 1
    23   11   43 1
    24   11   44 1
    25   12   13 1
    26   12   45 1
    27   12   46 1
    28   13   18 1
    29   13   14 1
    30   13   64 1
    31   14   15 1
    32   14   47 1
    33   14   48 1
    34   15   16 1
    35   15   49 1
    36   15   50 1
    37   16   17 1
    38   16   51 1
    39   16   52 1
    40   17   18 1
    41   17   53 1
    42   17   54 1
    43   18   55 1
    44   18   56 1
    45   19   20 ar
    46   19   26 1
    47   20   21 ar
    48   20   23 1
    49   21   22 ar
    50   21   57 1
    51   23   24 2
    52   23   25 am
    53   25   58 1
    54   25   59 1
    55   26   27 1
    56   26   60 1
    57   27   32 ar
    58   27   28 ar
    59   28   29 ar
    60   28   61 1
    61   29   30 ar
    62   29   62 1
    63   30   31 ar
    64   30   63 1
    65   31   32 ar
    66   31   34 1
    67   32   33 1
@<TRIPOS>MOLECULE
CHEMBL245769
   54    58     0     0     0
SMALL
USER_CHARGES

@<TRIPOS>ATOM
      1 C1          1.2765    1.4177   -0.3545 C.3       1 <0>         0.0293
      2 O1          1.2503   -0.0111   -0.3471 O.3       1 <0>        -0.3662
      3 C2          1.2452   -0.5855    0.9613 C.3       1 <0>         0.0443
      4 C3          1.2172   -2.0882    0.8502 C.2       1 <0>         0.5130
      5 O2          1.2030   -2.6153   -0.2421 O.2       1 <0>        -0.4916
      6 N1          1.2079   -2.8463    1.9645 N.am      1 <0>        -0.6689
      7 C4          1.0652   -4.2348    1.8649 C.ar      1 <0>         0.1689
      8 C5          0.4368   -4.7921    0.7573 C.ar      1 <0>        -0.1155
      9 C6          0.2962   -6.1632    0.6595 C.ar      1 <0>        -0.0977
     10 C7          0.7772   -6.9859    1.6577 C.ar      1 <0>        -0.0990
     11 C8          1.4104   -6.4362    2.7741 C.ar      1 <0>        -0.0001
     12 C9          1.5551   -5.0561    2.8673 C.ar      1 <0>        -0.1090
     13 C10         2.2741   -4.7541    4.1593 C.3       1 <0>         0.0079
     14 C11         2.5424   -6.0878    4.8111 C.2       1 <0>        -0.2311
     15 C12         2.0094   -7.0796    3.9712 C.2       1 <0>         0.1001
     16 N2          2.2337   -8.2525    4.5330 N.2       1 <0>        -0.2516
     17 N3          2.8973   -8.0436    5.7480 N.pl3     1 <0>        -0.4612
     18 H1          3.1838   -8.7329    6.3674 H         1 <0>         0.4453
     19 C13         3.0906   -6.7017    5.8961 C.2       1 <0>         0.1670
     20 C14         3.7521   -6.0332    7.0393 C.2       1 <0>        -0.0734
     21 C15         4.9567   -6.5087    7.5376 C.2       1 <0>        -0.1176
     22 C16         5.5322   -5.8593    8.5956 C.2       1 <0>        -0.0538
     23 S1          4.3661   -4.5456    8.9115 S.3       1 <0>         0.1284
     24 C17         3.1905   -4.9281    7.6242 C.2       1 <0>        -0.1369
     25 C18         6.7564   -6.1579    9.2759 C.1       1 <0>        -0.0717
     26 C19         7.7600   -6.4027    9.8336 C.1       1 <0>        -0.1260
     27 C20         9.0184   -6.7096   10.5329 C.3       1 <0>         0.1776
     28 O3          9.2244   -5.7607   11.5813 O.3       1 <0>        -0.3101
     29 C21        10.3496   -5.9031   12.3300 C.ar      1 <0>         0.1272
     30 C22        11.2401   -6.9314   12.0574 C.ar      1 <0>        -0.2098
     31 C23        12.3834   -7.0737   12.8196 C.ar      1 <0>        -0.0792
     32 C24        12.6404   -6.1926   13.8537 C.ar      1 <0>        -0.1554
     33 C25        11.7543   -5.1672   14.1277 C.ar      1 <0>        -0.0793
     34 C26        10.6126   -5.0169   13.3645 C.ar      1 <0>        -0.1487
     35 H2          2.1752    1.7672    0.1537 H         1 <0>         0.0460
     36 H3          1.2788    1.7757   -1.3841 H         1 <0>         0.0943
     37 H4          0.3955    1.7999    0.1611 H         1 <0>         0.0461
     38 H5          2.1432   -0.2775    1.4969 H         1 <0>         0.0849
     39 H6          0.3636   -0.2449    1.5043 H         1 <0>         0.0864
     40 H7          1.3002   -2.4294    2.8354 H         1 <0>         0.4125
     41 H8          0.0581   -4.1533   -0.0268 H         1 <0>         0.1524
     42 H9         -0.1928   -6.5932   -0.2022 H         1 <0>         0.1349
     43 H10         0.6634   -8.0567    1.5753 H         1 <0>         0.1290
     44 H11         3.2137   -4.2410    3.9544 H         1 <0>         0.0930
     45 H12         1.6445   -4.1413    4.8044 H         1 <0>         0.0908
     46 H13         5.4305   -7.3746    7.0992 H         1 <0>         0.1407
     47 H14         2.2714   -4.4201    7.3719 H         1 <0>         0.1983
     48 H15         8.9636   -7.7126   10.9561 H         1 <0>         0.0953
     49 H16         9.8480   -6.6577    9.8277 H         1 <0>         0.0954
     50 H17        11.0395   -7.6203   11.2502 H         1 <0>         0.1293
     51 H18        13.0769   -7.8741   12.6078 H         1 <0>         0.1269
     52 H19        13.5346   -6.3058   14.4487 H         1 <0>         0.1256
     53 H20        11.9571   -4.4805   14.9362 H         1 <0>         0.1313
     54 H21         9.9230   -4.2131   13.5760 H         1 <0>         0.1318
@<TRIPOS>BOND
     1    1    2 1
     2    1   35 1
     3    1   36 1
     4    1   37 1
     5    2    3 1
     6    3    4 1
     7    3   38 1
     8    3   39 1
     9    4    5 2
    10    4    6 am
    11    6    7 1
    12    6   40 1
    13    7   12 ar
    14    7    8 ar
    15    8    9 ar
    16    8   41 1
    17    9   10 ar
    18    9   42 1
    19   10   11 ar
    20   10   43 1
    21   11   15 1
    22   11   12 ar
    23   12   13 1
    24   13   14 1
    25   13   44 1
    26   13   45 1
    27   14   19 2
    28   14   15 1
    29   15   16 2
    30   16   17 1
    31   17   18 1
    32   17   19 1
    33   19   20 1
    34   20   24 2
    35   20   21 1
    36   21   22 2
    37   21   46 1
    38   22   23 1
    39   22   25 1
    40   23   24 1
    41   24   47 1
    42   25   26 3
    43   26   27 1
    44   27   28 1
    45   27   48 1
    46   27   49 1
    47   28   29 1
    48   29   34 ar
    49   29   30 ar
    50   30   31 ar
    51   30   50 1
    52   31   32 ar
    53   31   51 1
    54   32   33 ar
    55   32   52 1
    56   33   34 ar
    57   33   53 1
    58   34   54 1
@<TRIPOS>MOLECULE
CHEMBL245769__1
   54    58     0     0     0
SMALL
USER_CHARGES

@<TRIPOS>ATOM
      1 C1          1.2760    1.4177   -0.3545 C.3       1 <0>         0.0293
      2 O1          1.2499   -0.0110   -0.3471 O.3       1 <0>        -0.3664
      3 C2          1.2450   -0.5855    0.9614 C.3       1 <0>         0.0442
      4 C3          1.2170   -2.0881    0.8502 C.2       1 <0>         0.5136
      5 O2          1.2027   -2.6152   -0.2421 O.2       1 <0>        -0.4915
      6 N1          1.2079   -2.8463    1.9645 N.am      1 <0>        -0.6692
      7 C4          1.0652   -4.2348    1.8649 C.ar      1 <0>         0.1734
      8 C5          0.4366   -4.7933    0.7569 C.ar      1 <0>        -0.1153
      9 C6          0.2961   -6.1646    0.6593 C.ar      1 <0>        -0.0952
     10 C7          0.7769   -6.9885    1.6564 C.ar      1 <0>        -0.1084
     11 C8          1.4106   -6.4385    2.7739 C.ar      1 <0>        -0.0184
     12 C9          1.5541   -5.0555    2.8653 C.ar      1 <0>        -0.1076
     13 C10         2.2734   -4.7711    4.1609 C.3       1 <0>        -0.0012
     14 C11         2.5293   -6.1183    4.7920 C.2       1 <0>        -0.2249
     15 C12         2.0100   -7.0717    3.9695 C.2       1 <0>         0.1092
     16 N2          2.2449   -8.2847    4.5542 N.pl3     1 <0>        -0.4528
     17 N3          2.9085   -8.0592    5.7662 N.2       1 <0>        -0.2567
     18 H1          1.9958   -9.1497    4.1928 H         1 <0>         0.4425
     19 C13         3.0910   -6.7627    5.9056 C.2       1 <0>         0.1586
     20 C14         3.7558   -6.0957    7.0538 C.2       1 <0>        -0.0489
     21 C15         3.6420   -6.6136    8.3344 C.2       1 <0>        -0.0984
     22 C16         4.2718   -5.9664    9.3633 C.2       1 <0>        -0.0620
     23 S1          5.0471   -4.5942    8.5256 S.3       1 <0>         0.1085
     24 C17         4.4975   -4.9606    6.8675 C.2       1 <0>        -0.1422
     25 C18         4.3007   -6.3035   10.7548 C.1       1 <0>        -0.0631
     26 C19         4.3244   -6.5800   11.8955 C.1       1 <0>        -0.1355
     27 C20         4.3541   -6.9265   13.3258 C.3       1 <0>         0.1795
     28 O3          5.1384   -5.9638   14.0330 O.3       1 <0>        -0.3097
     29 C21         5.2680   -6.1390   15.3744 C.ar      1 <0>         0.1282
     30 C22         4.6576   -7.2185   15.9964 C.ar      1 <0>        -0.2100
     31 C23         4.7912   -7.3946   17.3600 C.ar      1 <0>        -0.0794
     32 C24         5.5321   -6.4958   18.1050 C.ar      1 <0>        -0.1564
     33 C25         6.1410   -5.4188   17.4876 C.ar      1 <0>        -0.0795
     34 C26         6.0155   -5.2418   16.1233 C.ar      1 <0>        -0.1493
     35 H2          2.1747    1.7673    0.1536 H         1 <0>         0.0463
     36 H3          1.2781    1.7757   -1.3840 H         1 <0>         0.0945
     37 H4          0.3951    1.7999    0.1613 H         1 <0>         0.0463
     38 H5          2.1431   -0.2775    1.4968 H         1 <0>         0.0857
     39 H6          0.3634   -0.2449    1.5044 H         1 <0>         0.0870
     40 H7          1.3003   -2.4294    2.8354 H         1 <0>         0.4137
     41 H8          0.0577   -4.1548   -0.0274 H         1 <0>         0.1533
     42 H9         -0.1933   -6.5940   -0.2023 H         1 <0>         0.1351
     43 H10         0.6630   -8.0592    1.5732 H         1 <0>         0.1254
     44 H11         3.2172   -4.2628    3.9635 H         1 <0>         0.0967
     45 H12         1.6476   -4.1617    4.8128 H         1 <0>         0.0980
     46 H13         3.0676   -7.5097    8.5170 H         1 <0>         0.1450
     47 H14         4.6980   -4.4237    5.9520 H         1 <0>         0.1957
     48 H15         3.3380   -6.9280   13.7205 H         1 <0>         0.0943
     49 H16         4.7939   -7.9160   13.4509 H         1 <0>         0.0943
     50 H17         4.0782   -7.9204   15.4150 H         1 <0>         0.1295
     51 H18         4.3163   -8.2348   17.8446 H         1 <0>         0.1266
     52 H19         5.6351   -6.6350   19.1710 H         1 <0>         0.1251
     53 H20         6.7189   -4.7180   18.0718 H         1 <0>         0.1308
     54 H21         6.4950   -4.4029   15.6408 H         1 <0>         0.1316
@<TRIPOS>BOND
     1    1    2 1
     2    1   35 1
     3    1   36 1
     4    1   37 1
     5    2    3 1
     6    3    4 1
     7    3   38 1
     8    3   39 1
     9    4    5 2
    10    4    6 am
    11    6    7 1
    12    6   40 1
    13    7   12 ar
    14    7    8 ar
    15    8    9 ar
    16    8   41 1
    17    9   10 ar
    18    9   42 1
    19   10   11 ar
    20   10   43 1
    21   11   12 ar
    22   11   15 1
    23   12   13 1
    24   13   44 1
    25   13   45 1
    26   13   14 1
    27   14   19 1
    28   14   15 2
    29   15   16 1
    30   16   17 1
    31   16   18 1
    32   17   19 2
    33   19   20 1
    34   20   24 2
    35   20   21 1
    36   21   22 2
    37   21   46 1
    38   22   23 1
    39   22   25 1
    40   23   24 1
    41   24   47 1
    42   25   26 3
    43   26   27 1
    44   27   28 1
    45   27   48 1
    46   27   49 1
    47   28   29 1
    48   29   34 ar
    49   29   30 ar
    50   30   31 ar
    51   30   50 1
    52   31   32 ar
    53   31   51 1
    54   32   33 ar
    55   32   52 1
    56   33   34 ar
    57   33   53 1
    58   34   54 1
@<TRIPOS>MOLECULE
CHEMBL1172528
   46    49     0     0     0
SMALL
USER_CHARGES

@<TRIPOS>ATOM
      1 C1         -0.0267    1.4083    0.0558 C.ar      1 <0>        -0.1666
      2 C2          1.1742    2.0971    0.0399 C.ar      1 <0>        -0.0762
      3 C3          2.3610    1.3596    0.0200 C.ar      1 <0>        -0.0735
      4 C4          2.2897   -0.0322    0.0169 C.ar      1 <0>         0.0999
      5 N1          1.1232   -0.6436    0.0325 N.ar      1 <0>        -0.4818
      6 C5         -0.0135    0.0256    0.0515 C.ar      1 <0>         0.0841
      7 C6          3.6756    2.0471    0.0020 C.ar      1 <0>        -0.0816
      8 C7          3.7334    3.4413    0.0106 C.ar      1 <0>        -0.0854
      9 C8          4.9520    4.0861   -0.0066 C.ar      1 <0>        -0.1242
     10 C9          6.1302    3.3520   -0.0321 C.ar      1 <0>         0.1875
     11 C10         6.0817    1.9505   -0.0404 C.ar      1 <0>        -0.0820
     12 C11         4.8497    1.3014   -0.0178 C.ar      1 <0>        -0.0737
     13 C12         7.3327    1.1655   -0.0676 C.2       1 <0>        -0.0947
     14 C13         7.9979    1.1029   -1.1963 C.2       1 <0>        -0.1210
     15 C14         9.2766    0.3368   -1.3716 C.3       1 <0>        -0.0884
     16 C15         9.8927    0.0209   -0.0071 C.3       1 <0>        -0.1223
     17 C16         8.8075   -0.5923    0.8865 C.3       1 <0>        -0.1168
     18 C17         7.7714    0.4914    1.1997 C.3       1 <0>        -0.0762
     19 N2          7.3610    4.0079   -0.0498 N.am      1 <0>        -0.6623
     20 C18         7.4932    5.1749   -0.7110 C.2       1 <0>         0.6278
     21 O1          6.5215    5.6975   -1.2222 O.2       1 <0>        -0.5298
     22 C19         8.8167    5.8181   -0.8144 C.2       1 <0>         0.0487
     23 N3          9.9821    5.3295   -0.2898 N.2       1 <0>        -0.5285
     24 C20        10.9634    6.2024   -0.5976 C.2       1 <0>        -0.0064
     25 C21        10.3775    7.2267   -1.3157 C.2       1 <0>        -0.0431
     26 N4          9.0694    6.9495   -1.4294 N.2       1 <0>        -0.4515
     27 C22        11.0468    8.3754   -1.8480 C.1       1 <0>         0.3322
     28 N5         11.5777    9.2866   -2.2702 N.1       1 <0>        -0.4918
     29 H1         -0.9636    1.9451    0.0759 H         1 <0>         0.1347
     30 H2          1.1933    3.1769    0.0425 H         1 <0>         0.1373
     31 H3          3.1990   -0.6146    0.0012 H         1 <0>         0.1567
     32 H4         -0.9484   -0.5149    0.0638 H         1 <0>         0.1532
     33 H5          2.8201    4.0174    0.0304 H         1 <0>         0.1242
     34 H6          4.9902    5.1654   -0.0005 H         1 <0>         0.1465
     35 H7          4.8059    0.2223   -0.0197 H         1 <0>         0.1265
     36 H8          7.6021    1.6335   -2.0497 H         1 <0>         0.1029
     37 H9          9.0704   -0.5944   -1.8993 H         1 <0>         0.0714
     38 H10         9.9779    0.9329   -1.9555 H         1 <0>         0.0751
     39 H11        10.7103   -0.6894   -0.1301 H         1 <0>         0.0621
     40 H12        10.2661    0.9385    0.4474 H         1 <0>         0.0705
     41 H13         8.3292   -1.4216    0.3652 H         1 <0>         0.0624
     42 H14         9.2552   -0.9485    1.8143 H         1 <0>         0.0637
     43 H15         8.2088    1.2314    1.8699 H         1 <0>         0.0742
     44 H16         6.9081    0.0344    1.6833 H         1 <0>         0.0696
     45 H17         8.1218    3.6241    0.4137 H         1 <0>         0.4194
     46 H18        12.0070    6.1170   -0.3330 H         1 <0>         0.1475
@<TRIPOS>BOND
     1    1    6 ar
     2    1    2 ar
     3    1   29 1
     4    2    3 ar
     5    2   30 1
     6    3    4 ar
     7    3    7 1
     8    4    5 ar
     9    4   31 1
    10    5    6 ar
    11    6   32 1
    12    7   12 ar
    13    7    8 ar
    14    8    9 ar
    15    8   33 1
    16    9   10 ar
    17    9   34 1
    18   10   11 ar
    19   10   19 1
    20   11   12 ar
    21   11   13 1
    22   12   35 1
    23   13   18 1
    24   13   14 2
    25   14   15 1
    26   14   36 1
    27   15   16 1
    28   15   37 1
    29   15   38 1
    30   16   17 1
    31   16   39 1
    32   16   40 1
    33   17   18 1
    34   17   41 1
    35   17   42 1
    36   18   43 1
    37   18   44 1
    38   19   20 am
    39   19   45 1
    40   20   21 2
    41   20   22 1
    42   22   26 2
    43   22   23 1
    44   23   24 1
    45   24   25 2
    46   24   46 1
    47   25   26 1
    48   25   27 1
    49   27   28 3
@<TRIPOS>MOLECULE
CHEMBL1172528__1
   47    50     0     0     0
SMALL
USER_CHARGES

@<TRIPOS>ATOM
      1 C1         -0.0267    1.4083    0.0558 C.ar      1 <0>        -0.1671
      2 C2          1.1742    2.0971    0.0399 C.ar      1 <0>        -0.0693
      3 C3          2.3610    1.3596    0.0200 C.ar      1 <0>        -0.0926
      4 C4          2.2897   -0.0322    0.0169 C.ar      1 <0>         0.1079
      5 N1          1.1232   -0.6436    0.0325 N.ar      1 <0>        -0.4805
      6 C5         -0.0135    0.0256    0.0515 C.ar      1 <0>         0.0962
      7 C6          3.6756    2.0471    0.0020 C.ar      1 <0>        -0.0515
      8 C7          3.7334    3.4413    0.0106 C.ar      1 <0>        -0.0910
      9 C8          4.9520    4.0861   -0.0066 C.ar      1 <0>        -0.1130
     10 C9          6.1302    3.3520   -0.0321 C.ar      1 <0>         0.1538
     11 C10         6.0817    1.9505   -0.0404 C.ar      1 <0>        -0.0610
     12 C11         4.8497    1.3014   -0.0178 C.ar      1 <0>        -0.0785
     13 C12         7.3327    1.1655   -0.0676 C.2       1 <0>        -0.0993
     14 C13         7.9979    1.1029   -1.1963 C.2       1 <0>        -0.1208
     15 C14         9.2766    0.3368   -1.3716 C.3       1 <0>        -0.0911
     16 C15         9.8927    0.0209   -0.0071 C.3       1 <0>        -0.1225
     17 C16         8.8075   -0.5923    0.8865 C.3       1 <0>        -0.1196
     18 C17         7.7714    0.4914    1.1997 C.3       1 <0>        -0.0778
     19 N2          7.3610    4.0079   -0.0498 N.am      1 <0>        -0.6388
     20 C18         7.4932    5.1749   -0.7110 C.2       1 <0>         0.6109
     21 O1          6.5215    5.6975   -1.2222 O.2       1 <0>        -0.5128
     22 C19         8.8167    5.8181   -0.8144 C.2       1 <0>         0.1598
     23 N3          9.0792    7.0004   -1.4510 N.pl3     1 <0>        -0.5110
     24 H1          8.4336    7.5600   -1.9103 H         1 <0>         0.4428
     25 C20        10.3994    7.2462   -1.3230 C.2       1 <0>         0.0647
     26 C21        10.9338    6.1972   -0.6003 C.2       1 <0>         0.0604
     27 N4          9.9334    5.3525   -0.3060 N.2       1 <0>        -0.4015
     28 C22        12.3076    6.0417   -0.2275 C.1       1 <0>         0.2939
     29 N5         13.3975    5.9184    0.0683 N.1       1 <0>        -0.3918
     30 H2         -0.9636    1.9451    0.0759 H         1 <0>         0.1384
     31 H3          1.1933    3.1769    0.0425 H         1 <0>         0.1376
     32 H4          3.1990   -0.6146    0.0012 H         1 <0>         0.1571
     33 H5         -0.9484   -0.5149    0.0638 H         1 <0>         0.1575
     34 H6          2.8201    4.0174    0.0304 H         1 <0>         0.1302
     35 H7          4.9902    5.1654   -0.0005 H         1 <0>         0.1450
     36 H8          4.8059    0.2223   -0.0197 H         1 <0>         0.1332
     37 H9          7.6021    1.6335   -2.0497 H         1 <0>         0.1029
     38 H10         9.0704   -0.5944   -1.8993 H         1 <0>         0.0768
     39 H11         9.9779    0.9329   -1.9555 H         1 <0>         0.0739
     40 H12        10.7103   -0.6894   -0.1301 H         1 <0>         0.0661
     41 H13        10.2661    0.9385    0.4474 H         1 <0>         0.0667
     42 H14         8.3292   -1.4216    0.3652 H         1 <0>         0.0660
     43 H15         9.2552   -0.9485    1.8143 H         1 <0>         0.0676
     44 H16         8.2088    1.2314    1.8699 H         1 <0>         0.0741
     45 H17         6.9081    0.0344    1.6833 H         1 <0>         0.0737
     46 H18         8.1218    3.6241    0.4137 H         1 <0>         0.4251
     47 H19        10.9358    8.0994   -1.7113 H         1 <0>         0.2094
@<TRIPOS>BOND
     1    1    6 ar
     2    1    2 ar
     3    1   30 1
     4    2    3 ar
     5    2   31 1
     6    3    4 ar
     7    3    7 1
     8    4    5 ar
     9    4   32 1
    10    5    6 ar
    11    6   33 1
    12    7   12 ar
    13    7    8 ar
    14    8    9 ar
    15    8   34 1
    16    9   10 ar
    17    9   35 1
    18   10   11 ar
    19   10   19 1
    20   11   12 ar
    21   11   13 1
    22   12   36 1
    23   13   18 1
    24   13   14 2
    25   14   15 1
    26   14   37 1
    27   15   16 1
    28   15   38 1
    29   15   39 1
    30   16   17 1
    31   16   40 1
    32   16   41 1
    33   17   18 1
    34   17   42 1
    35   17   43 1
    36   18   44 1
    37   18   45 1
    38   19   20 am
    39   19   46 1
    40   20   21 2
    41   20   22 1
    42   22   27 2
    43   22   23 1
    44   23   24 1
    45   23   25 1
    46   25   26 2
    47   25   47 1
    48   26   27 1
    49   26   28 1
    50   28   29 3
@<TRIPOS>MOLECULE
CHEMBL258365
   46    49     0     0     0
SMALL
USER_CHARGES

@<TRIPOS>ATOM
      1 C1          0.1434    1.3141    0.0173 C.3       1 <0>        -0.1512
      2 C2          0.2353   -0.2109   -0.0666 C.3       1 <0>         0.0589
      3 O1          0.8869   -0.5826   -1.2829 O.3       1 <0>        -0.3298
      4 C3          1.0488   -1.9006   -1.5122 C.2       1 <0>         0.5333
      5 O2          0.6477   -2.7119   -0.7016 O.2       1 <0>        -0.4645
      6 C4          1.7131   -2.3585   -2.7476 C.2       1 <0>         0.0393
      7 C5          1.8842   -3.7972   -3.0001 C.2       1 <0>         0.5272
      8 O3          1.4801   -4.6158   -2.1950 O.2       1 <0>        -0.4442
      9 N1          2.4948   -4.1998   -4.1365 N.am      1 <0>        -0.4491
     10 C6          2.9391   -3.2511   -5.0251 C.ar      1 <0>         0.4508
     11 C7          2.7551   -1.8750   -4.7449 C.ar      1 <0>        -0.1363
     12 N2          2.1475   -1.4789   -3.6256 N.2       1 <0>        -0.2857
     13 C8          3.2264   -0.9356   -5.6852 C.ar      1 <0>         0.3131
     14 N3          3.8146   -1.3769   -6.7781 N.ar      1 <0>        -0.5594
     15 C9          3.9678   -2.6788   -7.0037 C.ar      1 <0>         0.6226
     16 N4          3.5432   -3.6013   -6.1528 N.ar      1 <0>        -0.5874
     17 N5          4.5909   -3.0830   -8.1657 N.pl3     1 <0>        -0.6123
     18 C10         5.1585   -2.1341   -9.0209 C.ar      1 <0>         0.1439
     19 C11         5.7538   -0.9933   -8.4978 C.ar      1 <0>        -0.1058
     20 C12         6.3140   -0.0580   -9.3455 C.ar      1 <0>        -0.1002
     21 C13         6.2824   -0.2560  -10.7138 C.ar      1 <0>        -0.1267
     22 C14         5.6900   -1.3904  -11.2379 C.ar      1 <0>        -0.0997
     23 C15         5.1334   -2.3326  -10.3955 C.ar      1 <0>        -0.1373
     24 C16         2.6721   -5.5620   -4.4037 C.ar      1 <0>         0.1058
     25 C17         1.5756   -6.4141   -4.4325 C.ar      1 <0>        -0.0891
     26 C18         1.7540   -7.7578   -4.6969 C.ar      1 <0>        -0.1083
     27 C19         3.0226   -8.2552   -4.9329 C.ar      1 <0>        -0.1027
     28 C20         4.1164   -7.4096   -4.9044 C.ar      1 <0>        -0.1108
     29 C21         3.9443   -6.0638   -4.6463 C.ar      1 <0>        -0.0821
     30 H1          1.1465    1.7402   -0.0025 H         1 <0>         0.0683
     31 H2         -0.4281    1.6908   -0.8309 H         1 <0>         0.0683
     32 H3         -0.3536    1.5976    0.9450 H         1 <0>         0.0814
     33 H4          0.8069   -0.5876    0.7816 H         1 <0>         0.0712
     34 H5         -0.7678   -0.6369   -0.0469 H         1 <0>         0.0712
     35 H6          3.1073    0.1239   -5.5129 H         1 <0>         0.2044
     36 H7          4.6353   -4.0258   -8.3895 H         1 <0>         0.4298
     37 H8          5.7783   -0.8377   -7.4293 H         1 <0>         0.1335
     38 H9          6.7771    0.8292   -8.9395 H         1 <0>         0.1286
     39 H10         6.7209    0.4771  -11.3746 H         1 <0>         0.1259
     40 H11         5.6667   -1.5418  -12.3070 H         1 <0>         0.1290
     41 H12         4.6749   -3.2205  -10.8052 H         1 <0>         0.1267
     42 H13         0.5846   -6.0263   -4.2480 H         1 <0>         0.1270
     43 H14         0.9018   -8.4209   -4.7191 H         1 <0>         0.1340
     44 H15         3.1593   -9.3064   -5.1394 H         1 <0>         0.1312
     45 H16         5.1059   -7.8012   -5.0888 H         1 <0>         0.1327
     46 H17         4.7985   -5.4032   -4.6286 H         1 <0>         0.1243
@<TRIPOS>BOND
     1    1    2 1
     2    1   30 1
     3    1   31 1
     4    1   32 1
     5    2    3 1
     6    2   33 1
     7    2   34 1
     8    3    4 1
     9    4    5 2
    10    4    6 1
    11    6   12 2
    12    6    7 1
    13    7    8 2
    14    7    9 am
    15    9   10 1
    16    9   24 1
    17   10   16 ar
    18   10   11 ar
    19   11   12 1
    20   11   13 ar
    21   13   14 ar
    22   13   35 1
    23   14   15 ar
    24   15   16 ar
    25   15   17 1
    26   17   18 1
    27   17   36 1
    28   18   23 ar
    29   18   19 ar
    30   19   20 ar
    31   19   37 1
    32   20   21 ar
    33   20   38 1
    34   21   22 ar
    35   21   39 1
    36   22   23 ar
    37   22   40 1
    38   23   41 1
    39   24   29 ar
    40   24   25 ar
    41   25   26 ar
    42   25   42 1
    43   26   27 ar
    44   26   43 1
    45   27   28 ar
    46   27   44 1
    47   28   29 ar
    48   28   45 1
    49   29   46 1
@<TRIPOS>MOLECULE
CHEMBL261699
   48    50     0     0     0
SMALL
USER_CHARGES

@<TRIPOS>ATOM
      1 C1         -0.0277    1.5101   -0.0095 C.3       1 <0>        -0.1464
      2 C2         -0.0023   -0.0197   -0.0082 C.3       1 <0>        -0.0877
      3 C3         -1.4365   -0.5535    0.0039 C.3       1 <0>        -0.1310
      4 C4         -1.4076   -2.0848   -0.0298 C.3       1 <0>         0.1455
      5 N1         -0.5750   -2.5666    1.0808 N.pl3     1 <0>        -0.6742
      6 C5          0.7928   -2.0472    1.2153 C.3       1 <0>         0.1398
      7 C6          0.7392   -0.5163    1.2350 C.3       1 <0>        -0.1308
      8 C7         -1.0753   -3.5018    1.9932 C.ar      1 <0>         0.1533
      9 C8         -0.9122   -4.8535    1.7570 C.ar      1 <0>        -0.1045
     10 C9         -1.4142   -5.7861    2.6732 C.ar      1 <0>        -0.0313
     11 C10        -2.0789   -5.3444    3.8243 C.ar      1 <0>        -0.1068
     12 C11        -2.2383   -3.9963    4.0532 C.ar      1 <0>        -0.1070
     13 C12        -1.7354   -3.0692    3.1472 C.ar      1 <0>         0.1073
     14 N2         -1.8948   -1.7046    3.3873 N.am      1 <0>        -0.6422
     15 C13        -3.0135   -1.2522    3.9877 C.2       1 <0>         0.5940
     16 O1         -3.8466   -2.0400    4.3946 O.2       1 <0>        -0.4882
     17 C14        -3.2269    0.1927    4.1509 C.2       1 <0>        -0.0285
     18 C15        -4.3107    0.7770    4.7441 C.2       1 <0>        -0.1219
     19 C16        -4.1118    2.1608    4.6873 C.2       1 <0>        -0.1264
     20 C17        -2.9043    2.3640    4.0563 C.2       1 <0>         0.0658
     21 O2         -2.3845    1.1623    3.7463 O.3       1 <0>        -0.1435
     22 C18        -2.3032    3.6347    3.7830 C.1       1 <0>         0.2854
     23 N3         -1.8263    4.6427    3.5661 N.1       1 <0>        -0.3636
     24 C19        -1.2444   -7.2237    2.4276 C.2       1 <0>        -0.1193
     25 C20        -1.7302   -8.1238    3.3142 C.2       1 <0>        -0.1591
     26 C21        -1.5668   -9.5077    3.0778 C.2       1 <0>         0.4988
     27 O3         -0.9854   -9.8926    2.0702 O.co2     1 <0>        -0.6950
     28 O4         -2.0066  -10.3225    3.8804 O.co2     1 <0>        -0.6986
     29 H1          0.9937    1.8904   -0.0194 H         1 <0>         0.0532
     30 H2         -0.5558    1.8639   -0.8950 H         1 <0>         0.0531
     31 H3         -0.5392    1.8657    0.8849 H         1 <0>         0.0499
     32 H4          0.5097   -0.3752   -0.9025 H         1 <0>         0.0712
     33 H5         -1.9415   -0.2190    0.9102 H         1 <0>         0.0592
     34 H6         -1.9710   -0.1804   -0.8697 H         1 <0>         0.0667
     35 H7         -2.4208   -2.4719    0.0784 H         1 <0>         0.0689
     36 H8         -0.9847   -2.4215   -0.9763 H         1 <0>         0.0516
     37 H9          1.2315   -2.4095    2.1450 H         1 <0>         0.0703
     38 H10         1.3951   -2.3808    0.3703 H         1 <0>         0.0538
     39 H11         1.7533   -0.1168    1.2376 H         1 <0>         0.0696
     40 H12         0.2137   -0.1822    2.1297 H         1 <0>         0.0556
     41 H13        -0.3993   -5.1898    0.8680 H         1 <0>         0.1292
     42 H14        -2.4669   -6.0617    4.5323 H         1 <0>         0.1325
     43 H15        -2.7518   -3.6578    4.9410 H         1 <0>         0.1387
     44 H16        -1.2007   -1.0812    3.1221 H         1 <0>         0.4120
     45 H17        -5.1599    0.2672    5.1747 H         1 <0>         0.1772
     46 H18        -4.7772    2.9230    5.0652 H         1 <0>         0.1743
     47 H19        -0.7320   -7.5630    1.5395 H         1 <0>         0.1281
     48 H20        -2.2427   -7.7845    4.2023 H         1 <0>         0.1014
@<TRIPOS>BOND
     1    1    2 1
     2    1   29 1
     3    1   30 1
     4    1   31 1
     5    2    7 1
     6    2    3 1
     7    2   32 1
     8    3    4 1
     9    3   33 1
    10    3   34 1
    11    4    5 1
    12    4   35 1
    13    4   36 1
    14    5    6 1
    15    5    8 1
    16    6    7 1
    17    6   37 1
    18    6   38 1
    19    7   39 1
    20    7   40 1
    21    8   13 ar
    22    8    9 ar
    23    9   10 ar
    24    9   41 1
    25   10   11 ar
    26   10   24 1
    27   11   12 ar
    28   11   42 1
    29   12   13 ar
    30   12   43 1
    31   13   14 1
    32   14   15 am
    33   14   44 1
    34   15   16 2
    35   15   17 1
    36   17   21 1
    37   17   18 2
    38   18   19 1
    39   18   45 1
    40   19   20 2
    41   19   46 1
    42   20   21 1
    43   20   22 1
    44   22   23 3
    45   24   25 2
    46   24   47 1
    47   25   26 1
    48   25   48 1
    49   26   27 2
    50   26   28 1
@<TRIPOS>MOLECULE
CHEMBL261699__1
   49    51     0     0     0
SMALL
USER_CHARGES

@<TRIPOS>ATOM
      1 C1         -0.1685    1.4922   -0.1044 C.3       1 <0>        -0.1517
      2 C2         -0.1060   -0.0363   -0.0802 C.3       1 <0>        -0.1061
      3 C3         -1.5269   -0.6064   -0.0441 C.3       1 <0>        -0.1415
      4 C4         -1.4563   -2.1314    0.0602 C.3       1 <0>        -0.0089
      5 N1         -0.7446   -2.5091    1.2871 N.4       1 <0>        -0.3128
      6 C5          0.6406   -2.0272    1.2278 C.3       1 <0>        -0.0119
      7 C6          0.6507   -0.4982    1.1684 C.3       1 <0>        -0.1419
      8 C7         -0.7472   -3.9011    1.4159 C.ar      1 <0>        -0.0703
      9 C8         -0.2576   -4.6875    0.3981 C.ar      1 <0>        -0.0828
     10 C9         -0.2622   -6.0818    0.5326 C.ar      1 <0>         0.0013
     11 C10        -0.7649   -6.6668    1.7020 C.ar      1 <0>        -0.0632
     12 C11        -1.2491   -5.8786    2.7065 C.ar      1 <0>        -0.1021
     13 C12        -1.2398   -4.4923    2.5763 C.ar      1 <0>         0.1505
     14 N2         -1.7295   -3.6948    3.6077 N.am      1 <0>        -0.6742
     15 C13        -2.6538   -4.1847    4.4575 C.2       1 <0>         0.6140
     16 O1         -3.0104   -5.3442    4.3660 O.2       1 <0>        -0.4602
     17 C14        -3.2307   -3.3182    5.4949 C.2       1 <0>        -0.0585
     18 C15        -4.1671   -3.6929    6.4172 C.2       1 <0>        -0.0955
     19 C16        -4.4349   -2.5700    7.2080 C.2       1 <0>        -0.1265
     20 C17        -3.6434   -1.5487    6.7304 C.2       1 <0>         0.0895
     21 O2         -2.9210   -2.0237    5.6994 O.3       1 <0>        -0.1523
     22 C18        -3.5942   -0.2135    7.2456 C.1       1 <0>         0.2745
     23 N3         -3.5551    0.8457    7.6544 N.1       1 <0>        -0.3455
     24 C19         0.2580   -6.9276   -0.5490 C.2       1 <0>        -0.1568
     25 C20         0.2526   -8.2747   -0.4168 C.2       1 <0>        -0.1104
     26 C21         0.7533   -9.0890   -1.4580 C.2       1 <0>         0.4901
     27 O3          1.1922   -8.5754   -2.4802 O.co2     1 <0>        -0.6848
     28 O4          0.7484  -10.3084   -1.3384 O.co2     1 <0>        -0.6813
     29 H1          0.8434    1.8969   -0.1231 H         1 <0>         0.0668
     30 H2         -0.7073    1.8198   -0.9935 H         1 <0>         0.0670
     31 H3         -0.6861    1.8488    0.7861 H         1 <0>         0.0600
     32 H4          0.4089   -0.3942   -0.9718 H         1 <0>         0.0924
     33 H5         -2.0576   -0.2066    0.8201 H         1 <0>         0.0853
     34 H6         -2.0542   -0.3279   -0.9565 H         1 <0>         0.1147
     35 H7         -2.4663   -2.5405    0.0860 H         1 <0>         0.1322
     36 H8         -0.9258   -2.5300   -0.8045 H         1 <0>         0.1352
     37 H9          1.1787   -2.3595    2.1155 H         1 <0>         0.1308
     38 H10         1.1265   -2.4281    0.3382 H         1 <0>         0.1356
     39 H11         1.6800   -0.1425    1.1226 H         1 <0>         0.1146
     40 H12         0.1652   -0.0963    2.0577 H         1 <0>         0.0853
     41 H13         0.1284   -4.2311   -0.5015 H         1 <0>         0.1494
     42 H14        -0.7699   -7.7414    1.8090 H         1 <0>         0.1536
     43 H15        -1.6364   -6.3319    3.6070 H         1 <0>         0.1725
     44 H16        -1.4055   -2.7868    3.7144 H         1 <0>         0.4071
     45 H17        -4.6157   -4.6703    6.5166 H         1 <0>         0.1821
     46 H18        -5.1288   -2.5146    8.0338 H         1 <0>         0.1807
     47 H19         0.6448   -6.4750   -1.4500 H         1 <0>         0.1384
     48 H20        -0.1343   -8.7274    0.4842 H         1 <0>         0.1067
     49 H21        -1.2085   -2.0988    2.0837 H         1 <0>         0.4092
@<TRIPOS>BOND
     1    1    2 1
     2    1   29 1
     3    1   30 1
     4    1   31 1
     5    2    7 1
     6    2    3 1
     7    2   32 1
     8    3    4 1
     9    3   33 1
    10    3   34 1
    11    4    5 1
    12    4   35 1
    13    4   36 1
    14    5    6 1
    15    5    8 1
    16    5   49 1
    17    6    7 1
    18    6   37 1
    19    6   38 1
    20    7   39 1
    21    7   40 1
    22    8   13 ar
    23    8    9 ar
    24    9   10 ar
    25    9   41 1
    26   10   11 ar
    27   10   24 1
    28   11   12 ar
    29   11   42 1
    30   12   13 ar
    31   12   43 1
    32   13   14 1
    33   14   15 am
    34   14   44 1
    35   15   16 2
    36   15   17 1
    37   17   21 1
    38   17   18 2
    39   18   19 1
    40   18   45 1
    41   19   20 2
    42   19   46 1
    43   20   21 1
    44   20   22 1
    45   22   23 3
    46   24   25 2
    47   24   47 1
    48   25   26 1
    49   25   48 1
    50   26   27 2
    51   26   28 1
@<TRIPOS>MOLECULE
CHEMBL402852
   66    71     0     0     0
SMALL
USER_CHARGES

@<TRIPOS>ATOM
      1 C1          3.3486    0.5727   -0.5235 C.ar      1 <0>        -0.1038
      2 C2          2.4411    1.4100    0.0932 C.ar      1 <0>        -0.1088
      3 C3          1.2279    0.9016    0.5602 C.ar      1 <0>        -0.1117
      4 C4          0.9372   -0.4533    0.4007 C.ar      1 <0>        -0.0534
      5 C5          1.8552   -1.2859   -0.2205 C.ar      1 <0>         0.1513
      6 C6          3.0608   -0.7698   -0.6816 C.ar      1 <0>        -0.1181
      7 N1          1.5688   -2.6451   -0.3825 N.pl3     1 <0>        -0.6242
      8 C7          0.2697   -3.0547   -0.6115 C.ar      1 <0>         0.6114
      9 N2         -0.6695   -2.1316   -0.7883 N.ar      1 <0>        -0.5670
     10 C8         -1.9267   -2.4727   -1.0105 C.ar      1 <0>         0.2854
     11 C9         -2.2491   -3.8301   -1.0559 C.ar      1 <0>        -0.3358
     12 C10        -3.6216   -4.2978   -1.2982 C.2       1 <0>         0.4548
     13 O1         -4.5396   -3.5149   -1.4703 O.2       1 <0>        -0.4790
     14 C11        -3.8381   -5.7553   -1.3241 C.2       1 <0>        -0.3244
     15 C12        -2.7620   -6.5921   -1.1234 C.2       1 <0>         0.2529
     16 N3         -1.5203   -6.1251   -0.9047 N.pl3     1 <0>        -0.4240
     17 C13        -1.2294   -4.7841   -0.8644 C.ar      1 <0>         0.4654
     18 N4          0.0089   -4.3523   -0.6519 N.ar      1 <0>        -0.5839
     19 C14        -0.4819   -7.0437   -0.7100 C.ar      1 <0>         0.0933
     20 C15        -0.0839   -7.8756   -1.7486 C.ar      1 <0>        -0.1009
     21 C16         0.9404   -8.7786   -1.5514 C.ar      1 <0>        -0.0946
     22 C17         1.5738   -8.8601   -0.3216 C.ar      1 <0>        -0.0760
     23 C18         1.1797   -8.0332    0.7143 C.ar      1 <0>        -0.0854
     24 C19         0.1568   -7.1220    0.5192 C.ar      1 <0>        -0.0672
     25 C20         2.0196   -8.3152    1.9418 C.3       1 <0>        -0.0833
     26 C21         2.6660   -9.6924    1.6814 C.3       1 <0>        -0.1211
     27 C22         2.7056   -9.7536    0.1397 C.3       1 <0>        -0.0866
     28 C23        -5.1814   -6.3078   -1.5599 C.2       1 <0>         0.5913
     29 O2         -5.3315   -7.5082   -1.6872 O.2       1 <0>        -0.5591
     30 N5         -6.2453   -5.4839   -1.6347 N.am      1 <0>        -0.8430
     31 C24         0.2544    1.7962    1.2221 C.2       1 <0>         0.5633
     32 O3         -0.4533    1.3707    2.1141 O.2       1 <0>        -0.5323
     33 N6          0.1516    3.0835    0.8364 N.am      1 <0>        -0.6057
     34 C25         0.9082    3.5810   -0.3206 C.3       1 <0>         0.0882
     35 C26        -0.0656    4.2492   -1.2963 C.3       1 <0>        -0.1371
     36 C27        -0.8637    5.3258   -0.5571 C.3       1 <0>        -0.1215
     37 C28        -1.6748    4.6794    0.5682 C.3       1 <0>        -0.1359
     38 C29        -0.7239    4.0145    1.5613 C.3       1 <0>         0.1107
     39 H1          4.2850    0.9688   -0.8878 H         1 <0>         0.1367
     40 H2          2.6698    2.4585    0.2149 H         1 <0>         0.1387
     41 H3          0.0003   -0.8525    0.7603 H         1 <0>         0.1451
     42 H4          3.7747   -1.4199   -1.1653 H         1 <0>         0.1320
     43 H5          2.2825   -3.3003   -0.3340 H         1 <0>         0.4285
     44 H6         -2.6869   -1.7189   -1.1533 H         1 <0>         0.1929
     45 H7         -2.9215   -7.6601   -1.1422 H         1 <0>         0.1896
     46 H8         -0.5754   -7.8160   -2.7084 H         1 <0>         0.1335
     47 H9          1.2497   -9.4254   -2.3591 H         1 <0>         0.1334
     48 H10        -0.1480   -6.4730    1.3269 H         1 <0>         0.1242
     49 H11         2.7892   -7.5520    2.0570 H         1 <0>         0.0842
     50 H12         1.3895   -8.3551    2.8303 H         1 <0>         0.0784
     51 H13         3.6729   -9.7325    2.0967 H         1 <0>         0.0807
     52 H14         2.0469  -10.4935    2.0852 H         1 <0>         0.0756
     53 H15         2.5439  -10.7758   -0.2024 H         1 <0>         0.0808
     54 H16         3.6595   -9.3768   -0.2294 H         1 <0>         0.0857
     55 H17        -6.1174   -4.5228   -1.6056 H         1 <0>         0.4134
     56 H18        -7.1389   -5.8520   -1.7177 H         1 <0>         0.4017
     57 H19         1.6486    4.3084    0.0123 H         1 <0>         0.0725
     58 H20         1.4079    2.7485   -0.8158 H         1 <0>         0.1030
     59 H21         0.4936    4.7069   -2.1123 H         1 <0>         0.0772
     60 H22        -0.7491    3.5010   -1.6977 H         1 <0>         0.0685
     61 H23        -0.1780    6.0603   -0.1348 H         1 <0>         0.0649
     62 H24        -1.5400    5.8196   -1.2548 H         1 <0>         0.0669
     63 H25        -2.2609    5.4432    1.0793 H         1 <0>         0.0770
     64 H26        -2.3431    3.9271    0.1492 H         1 <0>         0.0676
     65 H27        -1.3007    3.4679    2.3074 H         1 <0>         0.0939
     66 H28        -0.1196    4.7781    2.0511 H         1 <0>         0.0690
@<TRIPOS>BOND
     1    1    6 ar
     2    1    2 ar
     3    1   39 1
     4    2    3 ar
     5    2   40 1
     6    3    4 ar
     7    3   31 1
     8    4    5 ar
     9    4   41 1
    10    5    6 ar
    11    5    7 1
    12    6   42 1
    13    7    8 1
    14    7   43 1
    15    8   18 ar
    16    8    9 ar
    17    9   10 ar
    18   10   11 ar
    19   10   44 1
    20   11   17 ar
    21   11   12 1
    22   12   13 2
    23   12   14 1
    24   14   15 2
    25   14   28 1
    26   15   16 1
    27   15   45 1
    28   16   17 1
    29   16   19 1
    30   17   18 ar
    31   19   24 ar
    32   19   20 ar
    33   20   21 ar
    34   20   46 1
    35   21   22 ar
    36   21   47 1
    37   22   27 1
    38   22   23 ar
    39   23   24 ar
    40   23   25 1
    41   24   48 1
    42   25   26 1
    43   25   49 1
    44   25   50 1
    45   26   27 1
    46   26   51 1
    47   26   52 1
    48   27   53 1
    49   27   54 1
    50   28   29 2
    51   28   30 am
    52   30   55 1
    53   30   56 1
    54   31   32 2
    55   31   33 am
    56   33   38 1
    57   33   34 1
    58   34   35 1
    59   34   57 1
    60   34   58 1
    61   35   36 1
    62   35   59 1
    63   35   60 1
    64   36   37 1
    65   36   61 1
    66   36   62 1
    67   37   38 1
    68   37   63 1
    69   37   64 1
    70   38   65 1
    71   38   66 1
@<TRIPOS>MOLECULE
CHEMBL1421
   60    63     0     0     0
SMALL
USER_CHARGES

@<TRIPOS>ATOM
      1 C1         -2.0700    1.6928    0.2333 C.3       1 <0>        -0.1170
      2 C2         -1.6482    0.2604    0.0301 C.ar      1 <0>        -0.0813
      3 C3         -1.8479   -0.3525   -1.1919 C.ar      1 <0>        -0.1034
      4 C4         -1.4615   -1.6665   -1.3798 C.ar      1 <0>        -0.0990
      5 C5         -0.8738   -2.3725   -0.3459 C.ar      1 <0>        -0.1046
      6 C6         -0.6714   -1.7660    0.8791 C.ar      1 <0>        -0.0220
      7 C7         -1.0534   -0.4428    1.0688 C.ar      1 <0>         0.1347
      8 N1         -0.8441    0.1769    2.3055 N.am      1 <0>        -0.6659
      9 C8         -1.2819   -0.4110    3.4365 C.2       1 <0>         0.6018
     10 O1         -1.7689   -1.5261    3.3939 O.2       1 <0>        -0.4722
     11 C9         -1.1720    0.2905    4.7149 C.2       1 <0>        -0.2635
     12 C10        -1.5472   -0.1201    5.9866 C.2       1 <0>         0.1512
     13 N2         -1.3262    0.7270    6.9599 N.2       1 <0>        -0.5510
     14 C11        -0.7756    1.9070    6.7361 C.2       1 <0>         0.2513
     15 S1         -0.5107    1.9100    5.0742 S.3       1 <0>         0.2445
     16 N3         -0.4817    2.8997    7.6498 N.pl3     1 <0>        -0.5870
     17 C12        -0.6908    2.6801    9.0050 C.ar      1 <0>         0.4543
     18 C13        -1.0534    1.4192    9.4679 C.ar      1 <0>        -0.2926
     19 C14        -1.2512    1.2508   10.8352 C.ar      1 <0>         0.4935
     20 N4         -1.0875    2.2952   11.6453 N.ar      1 <0>        -0.5328
     21 C15        -0.7435    3.4737   11.1677 C.ar      1 <0>         0.4541
     22 N5         -0.5417    3.6719    9.8809 N.ar      1 <0>        -0.5672
     23 C16        -0.5694    4.6273   12.1217 C.3       1 <0>        -0.1251
     24 N6         -1.6138    0.0143   11.3464 N.pl3     1 <0>        -0.5370
     25 C17        -2.0559   -0.1253   12.7422 C.3       1 <0>         0.1090
     26 C18        -3.3866   -0.8852   12.7576 C.3       1 <0>         0.0383
     27 N7         -3.2335   -2.1493   12.0251 N.3       1 <0>        -0.5289
     28 C19        -2.9165   -1.9105   10.6107 C.3       1 <0>         0.0343
     29 C20        -1.5725   -1.1917   10.5056 C.3       1 <0>         0.1057
     30 C21        -4.4334   -2.9856   12.1619 C.3       1 <0>         0.0545
     31 C22        -4.1483   -4.3816   11.6043 C.3       1 <0>         0.0776
     32 O2         -3.1500   -5.0191   12.4038 O.3       1 <0>        -0.5606
     33 Cl1         0.0658   -2.6526    2.1768 Cl        1 <0>        -0.0453
     34 H1         -1.2464    2.3553   -0.0328 H         1 <0>         0.0773
     35 H2         -2.9308    1.9112   -0.3987 H         1 <0>         0.0785
     36 H3         -2.3379    1.8478    1.2784 H         1 <0>         0.0640
     37 H4         -2.3069    0.1956   -2.0014 H         1 <0>         0.1372
     38 H5         -1.6193   -2.1430   -2.3361 H         1 <0>         0.1391
     39 H6         -0.5731   -3.3989   -0.4959 H         1 <0>         0.1403
     40 H7         -0.3838    1.0296    2.3489 H         1 <0>         0.4083
     41 H8         -1.9972   -1.0858    6.1634 H         1 <0>         0.2027
     42 H9         -0.1293    3.7505    7.3451 H         1 <0>         0.4460
     43 H10        -1.1784    0.5927    8.7841 H         1 <0>         0.2218
     44 H11         0.4644    4.6619   12.4652 H         1 <0>         0.1245
     45 H12        -0.8146    5.5596   11.6130 H         1 <0>         0.1071
     46 H13        -1.2322    4.4948   12.9768 H         1 <0>         0.1273
     47 H14        -1.3096   -0.6823   13.3087 H         1 <0>         0.0989
     48 H15        -2.1929    0.8619   13.1834 H         1 <0>         0.1094
     49 H16        -3.6740   -1.0944   13.7880 H         1 <0>         0.1036
     50 H17        -4.1569   -0.2794   12.2806 H         1 <0>         0.0428
     51 H18        -2.8631   -2.8634   10.0841 H         1 <0>         0.1043
     52 H19        -3.6935   -1.2904   10.1636 H         1 <0>         0.0450
     53 H20        -1.3900   -0.9091    9.4688 H         1 <0>         0.1029
     54 H21        -0.7788   -1.8532   10.8529 H         1 <0>         0.1042
     55 H22        -4.7041   -3.0633   13.2149 H         1 <0>         0.0912
     56 H23        -5.2561   -2.5340   11.6075 H         1 <0>         0.0533
     57 H24        -5.0627   -4.9745   11.6240 H         1 <0>         0.0547
     58 H25        -3.7921   -4.2970   10.5776 H         1 <0>         0.0454
     59 H26        -2.9188   -5.9101   12.1076 H         1 <0>         0.3805
     60 H27        -0.2852    4.5531    9.5669 H         1 <0>         0.4414
@<TRIPOS>BOND
     1    1    2 1
     2    1   34 1
     3    1   35 1
     4    1   36 1
     5    2    7 ar
     6    2    3 ar
     7    3    4 ar
     8    3   37 1
     9    4    5 ar
    10    4   38 1
    11    5    6 ar
    12    5   39 1
    13    6    7 ar
    14    6   33 1
    15    7    8 1
    16    8    9 am
    17    8   40 1
    18    9   10 2
    19    9   11 1
    20   11   15 1
    21   11   12 2
    22   12   13 1
    23   12   41 1
    24   13   14 2
    25   14   15 1
    26   14   16 1
    27   16   17 1
    28   16   42 1
    29   17   22 ar
    30   17   18 ar
    31   18   19 ar
    32   18   43 1
    33   19   20 ar
    34   19   24 1
    35   20   21 ar
    36   21   22 ar
    37   21   23 1
    38   22   60 1
    39   23   44 1
    40   23   45 1
    41   23   46 1
    42   24   29 1
    43   24   25 1
    44   25   26 1
    45   25   47 1
    46   25   48 1
    47   26   27 1
    48   26   49 1
    49   26   50 1
    50   27   28 1
    51   27   30 1
    52   28   29 1
    53   28   51 1
    54   28   52 1
    55   29   53 1
    56   29   54 1
    57   30   31 1
    58   30   55 1
    59   30   56 1
    60   31   32 1
    61   31   57 1
    62   31   58 1
    63   32   59 1
@<TRIPOS>MOLECULE
CHEMBL1421__1
   60    63     0     0     0
SMALL
USER_CHARGES

@<TRIPOS>ATOM
      1 C1          3.4124    6.6512    1.8897 C.3       1 <0>        -0.1163
      2 C2          2.6920    7.9714    1.9854 C.ar      1 <0>        -0.0843
      3 C3          3.0121    8.9981    1.1182 C.ar      1 <0>        -0.1045
      4 C4          2.3522   10.2099    1.2048 C.ar      1 <0>        -0.1038
      5 C5          1.3694   10.3990    2.1594 C.ar      1 <0>        -0.1055
      6 C6          1.0444    9.3766    3.0303 C.ar      1 <0>        -0.0236
      7 C7          1.7022    8.1551    2.9413 C.ar      1 <0>         0.1417
      8 N1          1.3714    7.1153    3.8168 N.am      1 <0>        -0.6710
      9 C8          1.3553    7.3335    5.1467 C.2       1 <0>         0.6087
     10 O1          1.5292    8.4574    5.5814 O.2       1 <0>        -0.4836
     11 C9          1.1291    6.2203    6.0676 C.2       1 <0>        -0.2919
     12 C10         1.0670    6.2153    7.4542 C.2       1 <0>         0.1635
     13 N2          0.8483    5.0563    8.0223 N.2       1 <0>        -0.5133
     14 C11         0.6959    3.9554    7.3079 C.2       1 <0>         0.2908
     15 S1          0.8482    4.4913    5.7199 S.3       1 <0>         0.1520
     16 N3          0.4615    2.6710    7.7573 N.pl3     1 <0>        -0.5898
     17 C12         0.2513    2.4361    9.1097 C.ar      1 <0>         0.4534
     18 C13        -0.0954    1.1662    9.5600 C.ar      1 <0>        -0.3376
     19 C14        -0.2952    0.9826   10.9250 C.ar      1 <0>         0.4607
     20 N4         -0.1485    2.0216   11.7451 N.ar      1 <0>        -0.5908
     21 C15         0.1808    3.2091   11.2794 C.ar      1 <0>         0.4046
     22 N5          0.3838    3.4218    9.9951 N.ar      1 <0>        -0.5314
     23 C16         0.3360    4.3561   12.2444 C.3       1 <0>        -0.0894
     24 N6         -0.6424   -0.2634   11.4237 N.pl3     1 <0>        -0.6179
     25 C17        -1.0594   -0.4281   12.8248 C.3       1 <0>         0.1046
     26 C18        -2.3757   -1.2120   12.8509 C.3       1 <0>        -0.0221
     27 N7         -2.2083   -2.4723   12.1163 N.4       1 <0>        -0.3823
     28 C19        -1.9425   -2.1937   10.6993 C.3       1 <0>        -0.0268
     29 C20        -0.6101   -1.4576   10.5651 C.3       1 <0>         0.1016
     30 C21        -3.4346   -3.2724   12.2345 C.3       1 <0>        -0.0056
     31 C22        -3.2188   -4.6367   11.5764 C.3       1 <0>         0.0448
     32 O2         -2.2227   -5.3623   12.2999 O.3       1 <0>        -0.5801
     33 Cl1        -0.1888    9.6145    4.2287 Cl        1 <0>        -0.0445
     34 H1          2.8800    5.9959    1.2003 H         1 <0>         0.0756
     35 H2          4.4261    6.8160    1.5246 H         1 <0>         0.0766
     36 H3          3.4521    6.1867    2.8750 H         1 <0>         0.0659
     37 H4          3.7793    8.8541    0.3718 H         1 <0>         0.1351
     38 H5          2.6049   11.0108    0.5257 H         1 <0>         0.1369
     39 H6          0.8557   11.3468    2.2245 H         1 <0>         0.1384
     40 H7          1.1536    6.2373    3.4667 H         1 <0>         0.4079
     41 H8          1.1926    7.1184    8.0330 H         1 <0>         0.1916
     42 H9          0.4436    1.9328    7.1283 H         1 <0>         0.4399
     43 H10        -0.2069    0.3443    8.8682 H         1 <0>         0.1428
     44 H11         1.3682    4.4018   12.5916 H         1 <0>         0.0928
     45 H12         0.0795    5.2896   11.7434 H         1 <0>         0.0949
     46 H13        -0.3276    4.2067   13.0961 H         1 <0>         0.0877
     47 H14        -0.2944   -0.9785   13.3724 H         1 <0>         0.0917
     48 H15        -1.2071    0.5511   13.2804 H         1 <0>         0.1402
     49 H16        -2.6503   -1.4269   13.8836 H         1 <0>         0.1447
     50 H17        -3.1610   -0.6193   12.3817 H         1 <0>         0.1326
     51 H18        -1.8978   -3.1321   10.1466 H         1 <0>         0.1433
     52 H19        -2.7409   -1.5714   10.2952 H         1 <0>         0.1343
     53 H20        -0.4609   -1.1588    9.5276 H         1 <0>         0.1286
     54 H21         0.2011   -2.1137   10.8807 H         1 <0>         0.0966
     55 H22        -3.6776   -3.4115   13.2880 H         1 <0>         0.1407
     56 H23        -4.2553   -2.7551   11.7376 H         1 <0>         0.1422
     57 H24        -4.1541   -5.1964   11.5852 H         1 <0>         0.0964
     58 H25        -2.8895   -4.4955   10.5470 H         1 <0>         0.0713
     59 H26        -2.0341   -6.2389   11.9379 H         1 <0>         0.4101
     60 H27        -1.4342   -2.9879   12.5075 H         1 <0>         0.4311
@<TRIPOS>BOND
     1    1    2 1
     2    1   34 1
     3    1   35 1
     4    1   36 1
     5    2    7 ar
     6    2    3 ar
     7    3    4 ar
     8    3   37 1
     9    4    5 ar
    10    4   38 1
    11    5    6 ar
    12    5   39 1
    13    6    7 ar
    14    6   33 1
    15    7    8 1
    16    8    9 am
    17    8   40 1
    18    9   10 2
    19    9   11 1
    20   11   15 1
    21   11   12 2
    22   12   13 1
    23   12   41 1
    24   13   14 2
    25   14   15 1
    26   14   16 1
    27   16   17 1
    28   16   42 1
    29   17   22 ar
    30   17   18 ar
    31   18   19 ar
    32   18   43 1
    33   19   20 ar
    34   19   24 1
    35   20   21 ar
    36   21   22 ar
    37   21   23 1
    38   23   44 1
    39   23   45 1
    40   23   46 1
    41   24   29 1
    42   24   25 1
    43   25   26 1
    44   25   47 1
    45   25   48 1
    46   26   27 1
    47   26   49 1
    48   26   50 1
    49   27   28 1
    50   27   30 1
    51   27   60 1
    52   28   29 1
    53   28   51 1
    54   28   52 1
    55   29   53 1
    56   29   54 1
    57   30   31 1
    58   30   55 1
    59   30   56 1
    60   31   32 1
    61   31   57 1
    62   31   58 1
    63   32   59 1
@<TRIPOS>MOLECULE
CHEMBL1421__2
   61    64     0     0     0
SMALL
USER_CHARGES

@<TRIPOS>ATOM
      1 C1          3.2770    6.6581    1.8427 C.3       1 <0>        -0.1166
      2 C2          2.5837    7.9904    1.9667 C.ar      1 <0>        -0.0814
      3 C3          2.9012    9.0183    1.0999 C.ar      1 <0>        -0.1028
      4 C4          2.2660   10.2411    1.2125 C.ar      1 <0>        -0.0975
      5 C5          1.3108   10.4402    2.1928 C.ar      1 <0>        -0.1039
      6 C6          0.9888    9.4167    3.0634 C.ar      1 <0>        -0.0218
      7 C7          1.6215    8.1842    2.9485 C.ar      1 <0>         0.1327
      8 N1          1.2933    7.1433    3.8237 N.am      1 <0>        -0.6648
      9 C8          1.3141    7.3507    5.1552 C.2       1 <0>         0.5983
     10 O1          1.5193    8.4677    5.5943 O.2       1 <0>        -0.4690
     11 C9          1.0903    6.2342    6.0727 C.2       1 <0>        -0.2500
     12 C10         1.0624    6.2188    7.4604 C.2       1 <0>         0.1439
     13 N2          0.8362    5.0594    8.0246 N.2       1 <0>        -0.4984
     14 C11         0.6458    3.9675    7.3056 C.2       1 <0>         0.2172
     15 S1          0.7692    4.5136    5.7185 S.3       1 <0>         0.2242
     16 N3          0.3986    2.6839    7.7506 N.pl3     1 <0>        -0.5513
     17 C12         0.2203    2.4413    9.1063 C.ar      1 <0>         0.5098
     18 C13        -0.1335    1.1734    9.5556 C.ar      1 <0>        -0.3097
     19 C14        -0.3003    0.9817   10.9244 C.ar      1 <0>         0.4927
     20 N4         -0.1163    2.0116   11.7481 N.ar      1 <0>        -0.5695
     21 C15         0.2187    3.1980   11.2828 C.ar      1 <0>         0.4589
     22 N5          0.3911    3.4178    9.9956 N.ar      1 <0>        -0.4762
     23 C16         0.4165    4.3348   12.2521 C.3       1 <0>        -0.1303
     24 N6         -0.6531   -0.2629   11.4224 N.pl3     1 <0>        -0.6123
     25 C17        -0.9643   -0.4465   12.8484 C.3       1 <0>         0.0782
     26 C18        -2.3027   -1.1838   12.9625 C.3       1 <0>        -0.0204
     27 N7         -2.2406   -2.4311   12.1903 N.4       1 <0>        -0.3852
     28 C19        -2.0770   -2.1279   10.7629 C.3       1 <0>        -0.0304
     29 C20        -0.7330   -1.4363   10.5388 C.3       1 <0>         0.0932
     30 C21        -3.4827   -3.1900   12.3886 C.3       1 <0>        -0.0061
     31 C22        -3.3702   -4.5448   11.6865 C.3       1 <0>         0.0434
     32 O2         -2.3479   -5.3224   12.3128 O.3       1 <0>        -0.5819
     33 Cl1        -0.2098    9.6671    4.2940 Cl        1 <0>        -0.0466
     34 H1          2.7157    6.0184    1.1617 H         1 <0>         0.0770
     35 H2          4.2843    6.8074    1.4538 H         1 <0>         0.0791
     36 H3          3.3325    6.1847    2.8230 H         1 <0>         0.0631
     37 H4          3.6468    8.8665    0.3335 H         1 <0>         0.1380
     38 H5          2.5166   11.0428    0.5336 H         1 <0>         0.1401
     39 H6          0.8165   11.3966    2.2780 H         1 <0>         0.1410
     40 H7          1.0508    6.2723    3.4722 H         1 <0>         0.4077
     41 H8          1.2191    7.1146    8.0429 H         1 <0>         0.2016
     42 H9          0.3494    1.9517    7.1163 H         1 <0>         0.4545
     43 H10        -0.2756    0.3590    8.8607 H         1 <0>         0.1860
     44 H11         1.4581    4.3621   12.5724 H         1 <0>         0.1309
     45 H12         0.1613    5.2760   11.7653 H         1 <0>         0.1358
     46 H13        -0.2267    4.1885   13.1199 H         1 <0>         0.1083
     47 H14        -0.1795   -1.0367   13.3215 H         1 <0>         0.1249
     48 H15        -1.0392    0.5259   13.3352 H         1 <0>         0.1232
     49 H16        -2.5028   -1.4138   14.0090 H         1 <0>         0.1602
     50 H17        -3.0999   -0.5526   12.5701 H         1 <0>         0.1410
     51 H18        -2.1110   -3.0537   10.1885 H         1 <0>         0.1585
     52 H19        -2.8811   -1.4682   10.4370 H         1 <0>         0.1418
     53 H20        -0.6550   -1.1179    9.4992 H         1 <0>         0.1416
     54 H21         0.0756   -2.1281   10.7747 H         1 <0>         0.1211
     55 H22        -3.6469   -3.3459   13.4548 H         1 <0>         0.1465
     56 H23        -4.3202   -2.6321   11.9697 H         1 <0>         0.1464
     57 H24        -4.3221   -5.0710   11.7578 H         1 <0>         0.1026
     58 H25        -3.1180   -4.3904   10.6374 H         1 <0>         0.0719
     59 H26        -2.2211   -6.1961   11.9183 H         1 <0>         0.4154
     60 H27        -0.2308    1.8869   12.7032 H         1 <0>         0.4393
     61 H28        -1.4578   -2.9831   12.5075 H         1 <0>         0.4359
@<TRIPOS>BOND
     1    1    2 1
     2    1   34 1
     3    1   35 1
     4    1   36 1
     5    2    7 ar
     6    2    3 ar
     7    3    4 ar
     8    3   37 1
     9    4    5 ar
    10    4   38 1
    11    5    6 ar
    12    5   39 1
    13    6    7 ar
    14    6   33 1
    15    7    8 1
    16    8    9 am
    17    8   40 1
    18    9   10 2
    19    9   11 1
    20   11   15 1
    21   11   12 2
    22   12   13 1
    23   12   41 1
    24   13   14 2
    25   14   15 1
    26   14   16 1
    27   16   17 1
    28   16   42 1
    29   17   18 ar
    30   17   22 ar
    31   18   43 1
    32   18   19 ar
    33   19   24 1
    34   19   20 ar
    35   20   60 1
    36   20   21 ar
    37   21   23 1
    38   21   22 ar
    39   23   44 1
    40   23   45 1
    41   23   46 1
    42   24   29 1
    43   24   25 1
    44   25   26 1
    45   25   47 1
    46   25   48 1
    47   26   27 1
    48   26   49 1
    49   26   50 1
    50   27   28 1
    51   27   30 1
    52   27   61 1
    53   28   29 1
    54   28   51 1
    55   28   52 1
    56   29   53 1
    57   29   54 1
    58   30   31 1
    59   30   55 1
    60   30   56 1
    61   31   32 1
    62   31   57 1
    63   31   58 1
    64   32   59 1
@<TRIPOS>MOLECULE
CHEMBL1421__3
   59    62     0     0     0
SMALL
USER_CHARGES

@<TRIPOS>ATOM
      1 C1          3.3957    6.6541    1.8846 C.3       1 <0>        -0.1166
      2 C2          2.6765    7.9747    1.9828 C.ar      1 <0>        -0.0851
      3 C3          2.9953    9.0018    1.1154 C.ar      1 <0>        -0.1055
      4 C4          2.3363   10.2139    1.2044 C.ar      1 <0>        -0.1070
      5 C5          1.3559   10.4031    2.1614 C.ar      1 <0>        -0.1064
      6 C6          1.0323    9.3804    3.0324 C.ar      1 <0>        -0.0243
      7 C7          1.6890    8.1585    2.9411 C.ar      1 <0>         0.1460
      8 N1          1.3596    7.1184    3.8167 N.am      1 <0>        -0.6734
      9 C8          1.3468    7.3357    5.1468 C.2       1 <0>         0.6131
     10 O1          1.5224    8.4593    5.5818 O.2       1 <0>        -0.4899
     11 C9          1.1219    6.2221    6.0675 C.2       1 <0>        -0.3092
     12 C10         1.0631    6.2164    7.4543 C.2       1 <0>         0.1722
     13 N2          0.8449    5.0572    8.0222 N.2       1 <0>        -0.5179
     14 C11         0.6902    3.9568    7.3075 C.2       1 <0>         0.3122
     15 S1          0.8391    4.4936    5.7194 S.3       1 <0>         0.1339
     16 N3          0.4559    2.6723    7.7567 N.pl3     1 <0>        -0.5904
     17 C12         0.2485    2.4367    9.1094 C.ar      1 <0>         0.4415
     18 C13        -0.0983    1.1669    9.5596 C.ar      1 <0>        -0.3413
     19 C14        -0.2952    0.9826   10.9250 C.ar      1 <0>         0.4685
     20 N4         -0.1457    2.0210   11.7454 N.ar      1 <0>        -0.5922
     21 C15         0.1836    3.2084   11.2797 C.ar      1 <0>         0.3947
     22 N5          0.3840    3.4217    9.9951 N.ar      1 <0>        -0.5460
     23 C16         0.3420    4.3547   12.2451 C.3       1 <0>        -0.0834
     24 N6         -0.6424   -0.2634   11.4237 N.pl3     1 <0>        -0.5966
     25 C17        -1.0590   -0.4265   12.8248 C.3       1 <0>         0.1301
     26 C18        -2.3852   -1.1937   12.8521 C.3       1 <0>         0.0401
     27 N7         -2.2386   -2.4458   12.0979 N.3       1 <0>        -0.5276
     28 C19        -1.9479   -2.1841   10.6820 C.3       1 <0>         0.0364
     29 C20        -0.6096   -1.4564   10.5641 C.3       1 <0>         0.1269
     30 C21        -3.4316   -3.2906   12.2431 C.3       1 <0>         0.0538
     31 C22        -3.1492   -4.6764   11.6595 C.3       1 <0>         0.0792
     32 O2         -2.1337   -5.3205   12.4316 O.3       1 <0>        -0.5589
     33 Cl1        -0.1979    9.6184    4.2338 Cl        1 <0>        -0.0432
     34 H1          2.8613    5.9996    1.1960 H         1 <0>         0.0754
     35 H2          4.4087    6.8185    1.5172 H         1 <0>         0.0754
     36 H3          3.4374    6.1889    2.8695 H         1 <0>         0.0676
     37 H4          3.7606    8.8577    0.3671 H         1 <0>         0.1337
     38 H5          2.5880   11.0150    0.5252 H         1 <0>         0.1350
     39 H6          0.8430   11.3512    2.2282 H         1 <0>         0.1371
     40 H7          1.1404    6.2407    3.4666 H         1 <0>         0.4085
     41 H8          1.1907    7.1190    8.0333 H         1 <0>         0.1884
     42 H9          0.4362    1.9344    7.1273 H         1 <0>         0.4386
     43 H10        -0.2121    0.3456    8.8676 H         1 <0>         0.1413
     44 H11         1.3750    4.3992   12.5900 H         1 <0>         0.0870
     45 H12         0.0853    5.2888   11.7453 H         1 <0>         0.0890
     46 H13        -0.3198    4.2054   13.0982 H         1 <0>         0.0846
     47 H14        -0.3000   -0.9879   13.3695 H         1 <0>         0.0744
     48 H15        -1.1933    0.5532   13.2832 H         1 <0>         0.1008
     49 H16        -2.6534   -1.4200   13.8841 H         1 <0>         0.0903
     50 H17        -3.1670   -0.5850   12.3979 H         1 <0>         0.0372
     51 H18        -1.8989   -3.1286   10.1401 H         1 <0>         0.0905
     52 H19        -2.7358   -1.5615   10.2580 H         1 <0>         0.0380
     53 H20        -0.4469   -1.1573    9.5286 H         1 <0>         0.0877
     54 H21         0.1935   -2.1187   10.8874 H         1 <0>         0.0802
     55 H22        -3.6832   -3.3855   13.2994 H         1 <0>         0.0861
     56 H23        -4.2663   -2.8352   11.7102 H         1 <0>         0.0487
     57 H24        -4.0601   -5.2745   11.6863 H         1 <0>         0.0498
     58 H25        -2.8116   -4.5745   10.6281 H         1 <0>         0.0451
     59 H26        -1.9032   -6.2057   12.1180 H         1 <0>         0.3762
@<TRIPOS>BOND
     1    1    2 1
     2    1   34 1
     3    1   35 1
     4    1   36 1
     5    2    7 ar
     6    2    3 ar
     7    3    4 ar
     8    3   37 1
     9    4    5 ar
    10    4   38 1
    11    5    6 ar
    12    5   39 1
    13    6    7 ar
    14    6   33 1
    15    7    8 1
    16    8    9 am
    17    8   40 1
    18    9   10 2
    19    9   11 1
    20   11   15 1
    21   11   12 2
    22   12   13 1
    23   12   41 1
    24   13   14 2
    25   14   15 1
    26   14   16 1
    27   16   17 1
    28   16   42 1
    29   17   22 ar
    30   17   18 ar
    31   18   19 ar
    32   18   43 1
    33   19   20 ar
    34   19   24 1
    35   20   21 ar
    36   21   22 ar
    37   21   23 1
    38   23   44 1
    39   23   45 1
    40   23   46 1
    41   24   29 1
    42   24   25 1
    43   25   26 1
    44   25   47 1
    45   25   48 1
    46   26   27 1
    47   26   49 1
    48   26   50 1
    49   27   28 1
    50   27   30 1
    51   28   29 1
    52   28   51 1
    53   28   52 1
    54   29   53 1
    55   29   54 1
    56   30   31 1
    57   30   55 1
    58   30   56 1
    59   31   32 1
    60   31   57 1
    61   31   58 1
    62   32   59 1
@<TRIPOS>MOLECULE
CHEMBL1421__4
   60    63     0     0     0
SMALL
USER_CHARGES

@<TRIPOS>ATOM
      1 C1          3.2739    6.6585    1.8418 C.3       1 <0>        -0.1168
      2 C2          2.5810    7.9910    1.9663 C.ar      1 <0>        -0.0823
      3 C3          2.8983    9.0189    1.0995 C.ar      1 <0>        -0.1038
      4 C4          2.2635   10.2419    1.2126 C.ar      1 <0>        -0.1008
      5 C5          1.3088   10.4411    2.1933 C.ar      1 <0>        -0.1049
      6 C6          0.9869    9.4175    3.0639 C.ar      1 <0>        -0.0226
      7 C7          1.6192    8.1849    2.9486 C.ar      1 <0>         0.1373
      8 N1          1.2913    7.1440    3.8238 N.am      1 <0>        -0.6678
      9 C8          1.3128    7.3511    5.1554 C.2       1 <0>         0.6036
     10 O1          1.5184    8.4680    5.5945 O.2       1 <0>        -0.4759
     11 C9          1.0891    6.2346    6.0728 C.2       1 <0>        -0.2694
     12 C10         1.0619    6.2190    7.4604 C.2       1 <0>         0.1522
     13 N2          0.8357    5.0596    8.0247 N.2       1 <0>        -0.5060
     14 C11         0.6446    3.9678    7.3056 C.2       1 <0>         0.2464
     15 S1          0.7674    4.5141    5.7185 S.3       1 <0>         0.2029
     16 N3          0.3973    2.6842    7.7505 N.pl3     1 <0>        -0.5650
     17 C12         0.2197    2.4414    9.1063 C.ar      1 <0>         0.4999
     18 C13        -0.1342    1.1736    9.5555 C.ar      1 <0>        -0.3181
     19 C14        -0.3003    0.9817   10.9244 C.ar      1 <0>         0.4940
     20 N4         -0.1157    2.0114   11.7481 N.ar      1 <0>        -0.5712
     21 C15         0.2193    3.1978   11.2829 C.ar      1 <0>         0.4509
     22 N5          0.3911    3.4178    9.9956 N.ar      1 <0>        -0.4879
     23 C16         0.4179    4.3344   12.2523 C.3       1 <0>        -0.1253
     24 N6         -0.6531   -0.2629   11.4224 N.pl3     1 <0>        -0.5744
     25 C17        -0.9639   -0.4449   12.8484 C.3       1 <0>         0.1013
     26 C18        -2.3114   -1.1652   12.9649 C.3       1 <0>         0.0387
     27 N7         -2.2712   -2.4031   12.1749 N.3       1 <0>        -0.5277
     28 C19        -2.0835   -2.1176   10.7462 C.3       1 <0>         0.0305
     29 C20        -0.7325   -1.4351   10.5377 C.3       1 <0>         0.1149
     30 C21        -3.4796   -3.2085   12.3965 C.3       1 <0>         0.0543
     31 C22        -3.2958   -4.5889   11.7629 C.3       1 <0>         0.0774
     32 O2         -2.2472   -5.2869   12.4378 O.3       1 <0>        -0.5615
     33 Cl1        -0.2110    9.6681    4.2952 Cl        1 <0>        -0.0453
     34 H1          2.7121    6.0191    1.1609 H         1 <0>         0.0767
     35 H2          4.2810    6.8077    1.4524 H         1 <0>         0.0779
     36 H3          3.3298    6.1850    2.8220 H         1 <0>         0.0648
     37 H4          3.6435    8.8670    0.3327 H         1 <0>         0.1365
     38 H5          2.5139   11.0437    0.5337 H         1 <0>         0.1383
     39 H6          0.8148   11.3976    2.2790 H         1 <0>         0.1396
     40 H7          1.0484    6.2731    3.4723 H         1 <0>         0.4083
     41 H8          1.2191    7.1147    8.0430 H         1 <0>         0.1979
     42 H9          0.3477    1.9521    7.1161 H         1 <0>         0.4525
     43 H10        -0.2767    0.3593    8.8606 H         1 <0>         0.1835
     44 H11         1.4596    4.3615   12.5720 H         1 <0>         0.1250
     45 H12         0.1626    5.2758   11.7656 H         1 <0>         0.1301
     46 H13        -0.2249    4.1881   13.1203 H         1 <0>         0.1049
     47 H14        -0.1857   -1.0458   13.3190 H         1 <0>         0.1119
     48 H15        -1.0251    0.5276   13.3369 H         1 <0>         0.0843
     49 H16        -2.5057   -1.4068   14.0099 H         1 <0>         0.1076
     50 H17        -3.1034   -0.5184   12.5874 H         1 <0>         0.0465
     51 H18        -2.1124   -3.0499   10.1822 H         1 <0>         0.1076
     52 H19        -2.8786   -1.4576   10.3996 H         1 <0>         0.0467
     53 H20        -0.6409   -1.1170    9.4992 H         1 <0>         0.1034
     54 H21         0.0684   -2.1330   10.7819 H         1 <0>         0.1075
     55 H22        -3.6507   -3.3200   13.4672 H         1 <0>         0.0925
     56 H23        -4.3362   -2.7111   11.9416 H         1 <0>         0.0553
     57 H24        -4.2233   -5.1548   11.8494 H         1 <0>         0.0565
     58 H25        -3.0370   -4.4741   10.7103 H         1 <0>         0.0456
     59 H26        -2.0752   -6.1719   12.0881 H         1 <0>         0.3821
     60 H27        -0.2297    1.8867   12.7033 H         1 <0>         0.4392
@<TRIPOS>BOND
     1    1    2 1
     2    1   34 1
     3    1   35 1
     4    1   36 1
     5    2    7 ar
     6    2    3 ar
     7    3    4 ar
     8    3   37 1
     9    4    5 ar
    10    4   38 1
    11    5    6 ar
    12    5   39 1
    13    6    7 ar
    14    6   33 1
    15    7    8 1
    16    8    9 am
    17    8   40 1
    18    9   10 2
    19    9   11 1
    20   11   15 1
    21   11   12 2
    22   12   13 1
    23   12   41 1
    24   13   14 2
    25   14   15 1
    26   14   16 1
    27   16   17 1
    28   16   42 1
    29   17   18 ar
    30   17   22 ar
    31   18   43 1
    32   18   19 ar
    33   19   24 1
    34   19   20 ar
    35   20   60 1
    36   20   21 ar
    37   21   23 1
    38   21   22 ar
    39   23   44 1
    40   23   45 1
    41   23   46 1
    42   24   29 1
    43   24   25 1
    44   25   26 1
    45   25   47 1
    46   25   48 1
    47   26   27 1
    48   26   49 1
    49   26   50 1
    50   27   28 1
    51   27   30 1
    52   28   29 1
    53   28   51 1
    54   28   52 1
    55   29   53 1
    56   29   54 1
    57   30   31 1
    58   30   55 1
    59   30   56 1
    60   31   32 1
    61   31   57 1
    62   31   58 1
    63   32   59 1
@<TRIPOS>MOLECULE
CHEMBL454105
   45    47     0     0     0
SMALL
USER_CHARGES

@<TRIPOS>ATOM
      1 C1         -0.0733    1.3948   -0.0006 C.3       1 <0>        -0.1239
      2 C2         -0.0936   -0.1102    0.0752 C.ar      1 <0>        -0.0763
      3 C3         -0.1658   -0.8575   -1.0856 C.ar      1 <0>        -0.1073
      4 C4         -0.1853   -2.2358   -1.0243 C.ar      1 <0>        -0.0927
      5 C5         -0.1316   -2.8804    0.2132 C.ar      1 <0>        -0.1279
      6 C6         -0.0584   -2.1265    1.3843 C.ar      1 <0>        -0.0522
      7 C7         -0.0341   -0.7421    1.3115 C.ar      1 <0>         0.1361
      8 N1          0.0450    0.0186    2.4827 N.am      1 <0>        -0.6671
      9 C8         -0.5704   -0.4053    3.6044 C.2       1 <0>         0.5648
     10 O1         -1.1222   -1.4883    3.6227 O.2       1 <0>        -0.5034
     11 C9         -0.5742    0.4467    4.8122 C.ar      1 <0>        -0.1926
     12 C10        -1.2050    0.0154    5.9858 C.ar      1 <0>        -0.0112
     13 C11        -1.1796    0.8503    7.0887 C.ar      1 <0>        -0.1758
     14 C12        -0.5381    2.0728    6.9979 C.ar      1 <0>         0.1282
     15 N2          0.0480    2.4530    5.8788 N.ar      1 <0>        -0.4852
     16 C13         0.0556    1.6918    4.8042 C.ar      1 <0>         0.1366
     17 C14        -0.1529   -4.3569    0.2819 C.2       1 <0>         0.5613
     18 O2         -0.1061   -4.9160    1.3603 O.2       1 <0>        -0.5031
     19 N3         -0.2242   -5.0833   -0.8512 N.am      1 <0>        -0.6673
     20 C15        -0.3673   -6.4727   -0.7832 C.ar      1 <0>         0.1504
     21 C16         0.0884   -7.2712   -1.8246 C.ar      1 <0>        -0.1183
     22 C17        -0.0545   -8.6428   -1.7544 C.ar      1 <0>        -0.0963
     23 C18        -0.6510   -9.2218   -0.6490 C.ar      1 <0>        -0.0917
     24 C19        -1.1061   -8.4299    0.3890 C.ar      1 <0>        -0.1603
     25 C20        -0.9602   -7.0577    0.3280 C.ar      1 <0>        -0.0822
     26 C21        -1.7558   -9.0650    1.5913 C.3       1 <0>         0.5091
     27 F1         -1.7837  -10.4541    1.4270 F         1 <0>        -0.1765
     28 F2         -1.0238   -8.7459    2.7400 F         1 <0>        -0.1724
     29 F3         -3.0632   -8.5847    1.7230 F         1 <0>        -0.1755
     30 H1          0.9575    1.7408   -0.0769 H         1 <0>         0.0798
     31 H2         -0.6322    1.7220   -0.8773 H         1 <0>         0.0788
     32 H3         -0.5304    1.8101    0.8975 H         1 <0>         0.0680
     33 H4         -0.2073   -0.3608   -2.0437 H         1 <0>         0.1380
     34 H5         -0.2424   -2.8161   -1.9334 H         1 <0>         0.1288
     35 H6         -0.0166   -2.6194    2.3443 H         1 <0>         0.1569
     36 H7          0.5427    0.8511    2.4876 H         1 <0>         0.4126
     37 H8         -1.6989   -0.9441    6.0286 H         1 <0>         0.1509
     38 H9         -1.6558    0.5511    8.0107 H         1 <0>         0.1478
     39 H10        -0.5170    2.7266    7.8573 H         1 <0>         0.1658
     40 H11         0.5497    2.0361    3.9077 H         1 <0>         0.1570
     41 H12        -0.1762   -4.6423   -1.7138 H         1 <0>         0.4144
     42 H13         0.5536   -6.8197   -2.6883 H         1 <0>         0.1369
     43 H14         0.2995   -9.2642   -2.5637 H         1 <0>         0.1413
     44 H15        -0.7619  -10.2948   -0.5967 H         1 <0>         0.1409
     45 H16        -1.3115   -6.4400    1.1413 H         1 <0>         0.1550
@<TRIPOS>BOND
     1    1    2 1
     2    1   30 1
     3    1   31 1
     4    1   32 1
     5    2    7 ar
     6    2    3 ar
     7    3    4 ar
     8    3   33 1
     9    4    5 ar
    10    4   34 1
    11    5    6 ar
    12    5   17 1
    13    6    7 ar
    14    6   35 1
    15    7    8 1
    16    8    9 am
    17    8   36 1
    18    9   10 2
    19    9   11 1
    20   11   16 ar
    21   11   12 ar
    22   12   13 ar
    23   12   37 1
    24   13   14 ar
    25   13   38 1
    26   14   15 ar
    27   14   39 1
    28   15   16 ar
    29   16   40 1
    30   17   18 2
    31   17   19 am
    32   19   20 1
    33   19   41 1
    34   20   25 ar
    35   20   21 ar
    36   21   22 ar
    37   21   42 1
    38   22   23 ar
    39   22   43 1
    40   23   24 ar
    41   23   44 1
    42   24   25 ar
    43   24   26 1
    44   25   45 1
    45   26   27 1
    46   26   28 1
    47   26   29 1
@<TRIPOS>MOLECULE
CHEMBL522834
   72    77     0     0     0
SMALL
USER_CHARGES

@<TRIPOS>ATOM
      1 C1          0.8925    0.3790    0.3562 C.3       1 <0>         0.0008
      2 O1          0.5627   -0.9825    0.0741 O.3       1 <0>        -0.1485
      3 N1         -0.8239   -1.2635    0.1342 N.am      1 <0>        -0.5868
      4 C2         -1.2698   -2.5114   -0.1114 C.2       1 <0>         0.5982
      5 O2         -0.4921   -3.3758   -0.4688 O.2       1 <0>        -0.5360
      6 C3         -2.6973   -2.8282    0.0526 C.2       1 <0>        -0.3158
      7 C4         -3.1486   -4.1220   -0.0917 C.2       1 <0>         0.2614
      8 N2         -4.4447   -4.4506    0.0500 N.pl3     1 <0>        -0.4232
      9 C5         -5.4151   -3.5264    0.3483 C.ar      1 <0>         0.4661
     10 C6         -5.0744   -2.1693    0.5202 C.ar      1 <0>        -0.3374
     11 C7         -3.6671   -1.7679    0.3800 C.2       1 <0>         0.4561
     12 O3         -3.3186   -0.6088    0.5231 O.2       1 <0>        -0.4841
     13 C8         -6.0794   -1.2498    0.8238 C.ar      1 <0>         0.2850
     14 N3         -7.3205   -1.6893    0.9395 N.ar      1 <0>        -0.5648
     15 C9         -7.6101   -2.9748    0.7716 C.ar      1 <0>         0.6133
     16 N4         -6.6882   -3.8805    0.4824 N.ar      1 <0>        -0.5853
     17 N5         -8.9233   -3.3824    0.9034 N.pl3     1 <0>        -0.6252
     18 C10        -9.9338   -2.4348    1.0931 C.ar      1 <0>         0.1503
     19 C11        -9.8859   -1.2217    0.4183 C.ar      1 <0>        -0.1009
     20 C12       -10.8855   -0.2879    0.6079 C.ar      1 <0>        -0.0945
     21 C13       -11.9331   -0.5593    1.4689 C.ar      1 <0>        -0.0907
     22 C14       -11.9838   -1.7661    2.1422 C.ar      1 <0>        -0.0963
     23 C15       -10.9906   -2.7068    1.9524 C.ar      1 <0>        -0.1356
     24 C16       -13.0216    0.4625    1.6741 C.3       1 <0>        -0.0759
     25 C17       -14.1371    0.2315    0.6527 C.3       1 <0>         0.0615
     26 N6        -15.1982    1.2275    0.8527 N.3       1 <0>        -0.5380
     27 C18       -15.8700    1.0292    2.1452 C.3       1 <0>         0.0135
     28 C19       -16.9250    2.1216    2.3388 C.3       1 <0>         0.0622
     29 O4        -17.8420    2.0915    1.2417 O.3       1 <0>        -0.3856
     30 C20       -17.2215    2.2821   -0.0326 C.3       1 <0>         0.0628
     31 C21       -16.1695    1.1913   -0.2502 C.3       1 <0>         0.0174
     32 C22        -4.8199   -5.7894   -0.1138 C.ar      1 <0>         0.0920
     33 C23        -4.4373   -6.7399    0.8239 C.ar      1 <0>        -0.0987
     34 C24        -4.8103   -8.0577    0.6578 C.ar      1 <0>        -0.0948
     35 C25        -5.5651   -8.4378   -0.4404 C.ar      1 <0>        -0.0743
     36 C26        -5.9475   -7.4938   -1.3757 C.ar      1 <0>        -0.0859
     37 C27        -5.5801   -6.1700   -1.2103 C.ar      1 <0>        -0.0672
     38 C28        -6.7575   -8.1564   -2.4696 C.3       1 <0>        -0.0832
     39 C29        -6.4595   -9.6648   -2.3356 C.3       1 <0>        -0.1212
     40 C30        -6.0925   -9.7988   -0.8425 C.3       1 <0>        -0.0870
     41 H1          1.9723    0.5125    0.2898 H         1 <0>         0.1128
     42 H2          0.4009    1.0294   -0.3673 H         1 <0>         0.0567
     43 H3          0.5560    0.6337    1.3612 H         1 <0>         0.0564
     44 H4         -1.4527   -0.5579    0.3522 H         1 <0>         0.4200
     45 H5         -2.4366   -4.8991   -0.3272 H         1 <0>         0.1921
     46 H6         -5.8483   -0.2038    0.9615 H         1 <0>         0.1936
     47 H7         -9.1445   -4.3260    0.8644 H         1 <0>         0.4263
     48 H8         -9.0676   -1.0088   -0.2537 H         1 <0>         0.1295
     49 H9        -10.8489    0.6556    0.0836 H         1 <0>         0.1275
     50 H10       -12.8033   -1.9750    2.8139 H         1 <0>         0.1254
     51 H11       -11.0333   -3.6510    2.4749 H         1 <0>         0.1254
     52 H12       -13.4259    0.3653    2.6817 H         1 <0>         0.0727
     53 H13       -12.6101    1.4632    1.5426 H         1 <0>         0.0830
     54 H14       -13.7329    0.3286   -0.3550 H         1 <0>         0.0782
     55 H15       -14.5486   -0.7692    0.7841 H         1 <0>         0.0372
     56 H16       -16.3517    0.0515    2.1589 H         1 <0>         0.0433
     57 H17       -15.1362    1.0853    2.9493 H         1 <0>         0.0894
     58 H18       -17.4648    1.9456    3.2693 H         1 <0>         0.0985
     59 H19       -16.4373    3.0956    2.3789 H         1 <0>         0.0607
     60 H20       -17.9757    2.2221   -0.8173 H         1 <0>         0.0988
     61 H21       -16.7424    3.2607   -0.0615 H         1 <0>         0.0608
     62 H22       -15.6543    1.3657   -1.1948 H         1 <0>         0.0871
     63 H23       -16.6560    0.2162   -0.2749 H         1 <0>         0.0433
     64 H24        -3.8486   -6.4480    1.6811 H         1 <0>         0.1336
     65 H25        -4.5123   -8.7966    1.3869 H         1 <0>         0.1337
     66 H26        -5.8823   -5.4320   -1.9385 H         1 <0>         0.1244
     67 H27        -7.8204   -7.9662   -2.3212 H         1 <0>         0.0840
     68 H28        -6.4405   -7.7936   -3.4474 H         1 <0>         0.0786
     69 H29        -7.3436  -10.2569   -2.5720 H         1 <0>         0.0808
     70 H30        -5.6194   -9.9515   -2.9683 H         1 <0>         0.0759
     71 H31        -5.3215  -10.5577   -0.7091 H         1 <0>         0.0812
     72 H32        -6.9768  -10.0499   -0.2568 H         1 <0>         0.0858
@<TRIPOS>BOND
     1    1    2 1
     2    1   41 1
     3    1   42 1
     4    1   43 1
     5    2    3 1
     6    3    4 am
     7    3   44 1
     8    4    5 2
     9    4    6 1
    10    6   11 1
    11    6    7 2
    12    7    8 1
    13    7   45 1
    14    8    9 1
    15    8   32 1
    16    9   16 ar
    17    9   10 ar
    18   10   11 1
    19   10   13 ar
    20   11   12 2
    21   13   14 ar
    22   13   46 1
    23   14   15 ar
    24   15   16 ar
    25   15   17 1
    26   17   18 1
    27   17   47 1
    28   18   23 ar
    29   18   19 ar
    30   19   20 ar
    31   19   48 1
    32   20   21 ar
    33   20   49 1
    34   21   22 ar
    35   21   24 1
    36   22   23 ar
    37   22   50 1
    38   23   51 1
    39   24   25 1
    40   24   52 1
    41   24   53 1
    42   25   26 1
    43   25   54 1
    44   25   55 1
    45   26   31 1
    46   26   27 1
    47   27   28 1
    48   27   56 1
    49   27   57 1
    50   28   29 1
    51   28   58 1
    52   28   59 1
    53   29   30 1
    54   30   31 1
    55   30   60 1
    56   30   61 1
    57   31   62 1
    58   31   63 1
    59   32   37 ar
    60   32   33 ar
    61   33   34 ar
    62   33   64 1
    63   34   35 ar
    64   34   65 1
    65   35   40 1
    66   35   36 ar
    67   36   37 ar
    68   36   38 1
    69   37   66 1
    70   38   39 1
    71   38   67 1
    72   38   68 1
    73   39   40 1
    74   39   69 1
    75   39   70 1
    76   40   71 1
    77   40   72 1
@<TRIPOS>MOLECULE
CHEMBL522834__1
   73    78     0     0     0
SMALL
USER_CHARGES

@<TRIPOS>ATOM
      1 C1         -0.7556    0.3553    0.6036 C.3       1 <0>         0.0005
      2 O1         -0.3253   -0.9965    0.4318 O.3       1 <0>        -0.1464
      3 N1          0.3200   -1.2428   -0.8044 N.am      1 <0>        -0.5869
      4 C2          0.7750   -2.4783   -1.0926 C.2       1 <0>         0.5962
      5 O2          0.7093   -3.3607   -0.2579 O.2       1 <0>        -0.5317
      6 C3          1.3512   -2.7597   -2.4169 C.2       1 <0>        -0.3110
      7 C4          1.7219   -4.0412   -2.7614 C.2       1 <0>         0.2598
      8 N2          2.2520   -4.3377   -3.9610 N.pl3     1 <0>        -0.4217
      9 C5          2.4641   -3.3905   -4.9318 C.ar      1 <0>         0.4682
     10 C6          2.1239   -2.0430   -4.6956 C.ar      1 <0>        -0.3304
     11 C7          1.5358   -1.6765   -3.3990 C.2       1 <0>         0.4547
     12 O3          1.2196   -0.5271   -3.1457 O.2       1 <0>        -0.4802
     13 C8          2.3488   -1.0996   -5.6992 C.ar      1 <0>         0.2845
     14 N3          2.8757   -1.5082   -6.8404 N.ar      1 <0>        -0.5713
     15 C9          3.1858   -2.7854   -7.0330 C.ar      1 <0>         0.6096
     16 N4          2.9897   -3.7130   -6.1082 N.ar      1 <0>        -0.5800
     17 N5          3.7343   -3.1604   -8.2440 N.pl3     1 <0>        -0.6318
     18 C10         4.0602   -2.1884   -9.1947 C.ar      1 <0>         0.1811
     19 C11         4.6018   -0.9745   -8.7916 C.ar      1 <0>        -0.1034
     20 C12         4.9225   -0.0166   -9.7333 C.ar      1 <0>        -0.0866
     21 C13         4.7047   -0.2647  -11.0762 C.ar      1 <0>        -0.1239
     22 C14         4.1656   -1.4721  -11.4808 C.ar      1 <0>        -0.0856
     23 C15         3.8484   -2.4368  -10.5448 C.ar      1 <0>        -0.1383
     24 C16         5.0550    0.7834  -12.1008 C.3       1 <0>        -0.0968
     25 C17         6.5006    0.5841  -12.5606 C.3       1 <0>        -0.0069
     26 N6          6.8421    1.6057  -13.5594 N.4       1 <0>        -0.3862
     27 C18         6.0219    1.4081  -14.7625 C.3       1 <0>        -0.0486
     28 C19         6.3794    2.4739  -15.8014 C.3       1 <0>         0.0358
     29 O4          7.7761    2.3928  -16.0987 O.3       1 <0>        -0.3568
     30 C20         8.6170    2.5553  -14.9531 C.3       1 <0>         0.0356
     31 C21         8.2637    1.4897  -13.9126 C.3       1 <0>        -0.0433
     32 C22         2.6022   -5.6661   -4.2307 C.ar      1 <0>         0.0880
     33 C23         1.6137   -6.6292   -4.3872 C.ar      1 <0>        -0.0976
     34 C24         1.9645   -7.9366   -4.6535 C.ar      1 <0>        -0.0939
     35 C25         3.2986   -8.2938   -4.7656 C.ar      1 <0>        -0.0715
     36 C26         4.2851   -7.3372   -4.6102 C.ar      1 <0>        -0.0864
     37 C27         3.9375   -6.0236   -4.3483 C.ar      1 <0>        -0.0679
     38 C28         5.6475   -7.9755   -4.7778 C.3       1 <0>        -0.0825
     39 C29         5.4061   -9.4913   -4.6169 C.3       1 <0>        -0.1217
     40 C30         3.9317   -9.6397   -5.0484 C.3       1 <0>        -0.0882
     41 H1          0.1066    1.0203    0.5526 H         1 <0>         0.0567
     42 H2         -1.4617    0.6148   -0.1851 H         1 <0>         0.0566
     43 H3         -1.2398    0.4619    1.5743 H         1 <0>         0.1146
     44 H4          0.4345   -0.5224   -1.4437 H         1 <0>         0.4191
     45 H5          1.5821   -4.8352   -2.0427 H         1 <0>         0.1945
     46 H6          2.0979   -0.0602   -5.5471 H         1 <0>         0.1950
     47 H7          3.8933   -4.0981   -8.4348 H         1 <0>         0.4296
     48 H8          4.7715   -0.7799   -7.7430 H         1 <0>         0.1360
     49 H9          5.3437    0.9275   -9.4206 H         1 <0>         0.1283
     50 H10         3.9967   -1.6627  -12.5304 H         1 <0>         0.1285
     51 H11         3.4319   -3.3815  -10.8619 H         1 <0>         0.1325
     52 H12         4.3859    0.6929  -12.9565 H         1 <0>         0.0941
     53 H13         4.9476    1.7739  -11.6588 H         1 <0>         0.0954
     54 H14         7.1697    0.6745  -11.7049 H         1 <0>         0.1342
     55 H15         6.6080   -0.4065  -13.0026 H         1 <0>         0.1320
     56 H16         6.2151    0.4182  -15.1757 H         1 <0>         0.1394
     57 H17         4.9671    1.4941  -14.5016 H         1 <0>         0.1438
     58 H18         5.8032    2.3034  -16.7109 H         1 <0>         0.1418
     59 H19         6.1487    3.4620  -15.4035 H         1 <0>         0.0814
     60 H20         9.6602    2.4438  -15.2486 H         1 <0>         0.1419
     61 H21         8.4629    3.5463  -14.5261 H         1 <0>         0.0814
     62 H22         8.8730    1.6362  -13.0208 H         1 <0>         0.1427
     63 H23         8.4560    0.4998  -14.3261 H         1 <0>         0.1388
     64 H24         0.5726   -6.3552   -4.3003 H         1 <0>         0.1342
     65 H25         1.1956   -8.6853   -4.7748 H         1 <0>         0.1352
     66 H26         4.7078   -5.2757   -4.2311 H         1 <0>         0.1235
     67 H27         6.0472   -7.7592   -5.7686 H         1 <0>         0.0828
     68 H28         6.3303   -7.6174   -4.0073 H         1 <0>         0.0789
     69 H29         6.0618  -10.0602   -5.2761 H         1 <0>         0.0815
     70 H30         5.5386   -9.7968   -3.5790 H         1 <0>         0.0772
     71 H31         3.4427  -10.4181   -4.4627 H         1 <0>         0.0829
     72 H32         3.8702   -9.8705   -6.1119 H         1 <0>         0.0863
     73 H33         6.6640    2.5224  -13.1774 H         1 <0>         0.4231
@<TRIPOS>BOND
     1    1    2 1
     2    1   41 1
     3    1   42 1
     4    1   43 1
     5    2    3 1
     6    3    4 am
     7    3   44 1
     8    4    5 2
     9    4    6 1
    10    6   11 1
    11    6    7 2
    12    7    8 1
    13    7   45 1
    14    8    9 1
    15    8   32 1
    16    9   16 ar
    17    9   10 ar
    18   10   11 1
    19   10   13 ar
    20   11   12 2
    21   13   14 ar
    22   13   46 1
    23   14   15 ar
    24   15   16 ar
    25   15   17 1
    26   17   18 1
    27   17   47 1
    28   18   23 ar
    29   18   19 ar
    30   19   20 ar
    31   19   48 1
    32   20   21 ar
    33   20   49 1
    34   21   22 ar
    35   21   24 1
    36   22   23 ar
    37   22   50 1
    38   23   51 1
    39   24   25 1
    40   24   52 1
    41   24   53 1
    42   25   26 1
    43   25   54 1
    44   25   55 1
    45   26   31 1
    46   26   27 1
    47   26   73 1
    48   27   28 1
    49   27   56 1
    50   27   57 1
    51   28   29 1
    52   28   58 1
    53   28   59 1
    54   29   30 1
    55   30   31 1
    56   30   60 1
    57   30   61 1
    58   31   62 1
    59   31   63 1
    60   32   37 ar
    61   32   33 ar
    62   33   34 ar
    63   33   64 1
    64   34   35 ar
    65   34   65 1
    66   35   40 1
    67   35   36 ar
    68   36   37 ar
    69   36   38 1
    70   37   66 1
    71   38   39 1
    72   38   67 1
    73   38   68 1
    74   39   40 1
    75   39   69 1
    76   39   70 1
    77   40   71 1
    78   40   72 1
@<TRIPOS>MOLECULE
CHEMBL455591
   74    79     0     0     0
SMALL
USER_CHARGES

@<TRIPOS>ATOM
      1 C1         -0.7556    0.3553    0.6036 C.3       1 <0>         0.0008
      2 O1         -0.3253   -0.9965    0.4318 O.3       1 <0>        -0.1485
      3 N1          0.3200   -1.2428   -0.8044 N.am      1 <0>        -0.5869
      4 C2          0.7750   -2.4783   -1.0926 C.2       1 <0>         0.5982
      5 O2          0.7093   -3.3607   -0.2579 O.2       1 <0>        -0.5359
      6 C3          1.3512   -2.7597   -2.4169 C.2       1 <0>        -0.3158
      7 C4          1.7219   -4.0412   -2.7614 C.2       1 <0>         0.2613
      8 N2          2.2520   -4.3377   -3.9610 N.pl3     1 <0>        -0.4232
      9 C5          2.4641   -3.3905   -4.9318 C.ar      1 <0>         0.4661
     10 C6          2.1239   -2.0430   -4.6956 C.ar      1 <0>        -0.3374
     11 C7          1.5358   -1.6765   -3.3990 C.2       1 <0>         0.4561
     12 O3          1.2196   -0.5271   -3.1457 O.2       1 <0>        -0.4841
     13 C8          2.3488   -1.0996   -5.6992 C.ar      1 <0>         0.2851
     14 N3          2.8757   -1.5082   -6.8404 N.ar      1 <0>        -0.5648
     15 C9          3.1858   -2.7854   -7.0330 C.ar      1 <0>         0.6131
     16 N4          2.9897   -3.7130   -6.1082 N.ar      1 <0>        -0.5853
     17 N5          3.7343   -3.1604   -8.2440 N.pl3     1 <0>        -0.6253
     18 C10         4.0602   -2.1884   -9.1947 C.ar      1 <0>         0.1507
     19 C11         4.6018   -0.9745   -8.7916 C.ar      1 <0>        -0.1012
     20 C12         4.9225   -0.0166   -9.7333 C.ar      1 <0>        -0.0942
     21 C13         4.7047   -0.2647  -11.0762 C.ar      1 <0>        -0.0913
     22 C14         4.1656   -1.4721  -11.4808 C.ar      1 <0>        -0.0961
     23 C15         3.8484   -2.4368  -10.5448 C.ar      1 <0>        -0.1358
     24 C16         5.0550    0.7834  -12.1008 C.3       1 <0>        -0.0767
     25 C17         6.5006    0.5841  -12.5606 C.3       1 <0>         0.0623
     26 N6          6.8421    1.6057  -13.5594 N.3       1 <0>        -0.5405
     27 C18         6.0526    1.4282  -14.7848 C.3       1 <0>         0.0508
     28 C19         6.3269    2.5898  -15.7426 C.3       1 <0>        -0.1552
     29 C20         7.8207    2.6277  -16.0766 C.3       1 <0>         0.2842
     30 C21         8.6225    2.7644  -14.7793 C.3       1 <0>        -0.1549
     31 C22         8.2816    1.5977  -13.8494 C.3       1 <0>         0.0556
     32 F1          8.0864    3.7212  -16.9078 F         1 <0>        -0.2001
     33 F2          8.1842    1.4443  -16.7283 F         1 <0>        -0.2014
     34 C23         2.6022   -5.6661   -4.2307 C.ar      1 <0>         0.0920
     35 C24         1.6137   -6.6292   -4.3872 C.ar      1 <0>        -0.0987
     36 C25         1.9645   -7.9366   -4.6535 C.ar      1 <0>        -0.0948
     37 C26         3.2986   -8.2938   -4.7656 C.ar      1 <0>        -0.0744
     38 C27         4.2851   -7.3372   -4.6102 C.ar      1 <0>        -0.0859
     39 C28         3.9375   -6.0236   -4.3483 C.ar      1 <0>        -0.0672
     40 C29         5.6475   -7.9755   -4.7778 C.3       1 <0>        -0.0831
     41 C30         5.4061   -9.4913   -4.6169 C.3       1 <0>        -0.1212
     42 C31         3.9317   -9.6397   -5.0484 C.3       1 <0>        -0.0870
     43 H1          0.1066    1.0203    0.5526 H         1 <0>         0.0567
     44 H2         -1.4617    0.6148   -0.1851 H         1 <0>         0.0564
     45 H3         -1.2398    0.4619    1.5743 H         1 <0>         0.1128
     46 H4          0.4345   -0.5224   -1.4437 H         1 <0>         0.4200
     47 H5          1.5821   -4.8352   -2.0427 H         1 <0>         0.1921
     48 H6          2.0979   -0.0602   -5.5471 H         1 <0>         0.1936
     49 H7          3.8933   -4.0981   -8.4348 H         1 <0>         0.4263
     50 H8          4.7715   -0.7799   -7.7430 H         1 <0>         0.1294
     51 H9          5.3437    0.9275   -9.4206 H         1 <0>         0.1277
     52 H10         3.9967   -1.6627  -12.5304 H         1 <0>         0.1256
     53 H11         3.4319   -3.3815  -10.8619 H         1 <0>         0.1253
     54 H12         4.3859    0.6929  -12.9565 H         1 <0>         0.0733
     55 H13         4.9476    1.7739  -11.6588 H         1 <0>         0.0841
     56 H14         7.1697    0.6745  -11.7049 H         1 <0>         0.0803
     57 H15         6.6080   -0.4065  -13.0026 H         1 <0>         0.0392
     58 H16         6.3310    0.4893  -15.2634 H         1 <0>         0.0456
     59 H17         4.9921    1.4072  -14.5337 H         1 <0>         0.0939
     60 H18         5.7527    2.4497  -16.6584 H         1 <0>         0.0924
     61 H19         6.0358    3.5278  -15.2698 H         1 <0>         0.1043
     62 H20         9.6883    2.7490  -15.0068 H         1 <0>         0.0927
     63 H21         8.3675    3.7051  -14.2913 H         1 <0>         0.1043
     64 H22         8.8401    1.6998  -12.9189 H         1 <0>         0.0912
     65 H23         8.5496    0.6580  -14.3324 H         1 <0>         0.0455
     66 H24         0.5726   -6.3552   -4.3003 H         1 <0>         0.1335
     67 H25         1.1956   -8.6853   -4.7748 H         1 <0>         0.1336
     68 H26         4.7078   -5.2757   -4.2311 H         1 <0>         0.1244
     69 H27         6.0472   -7.7592   -5.7686 H         1 <0>         0.0840
     70 H28         6.3303   -7.6174   -4.0073 H         1 <0>         0.0786
     71 H29         6.0618  -10.0602   -5.2761 H         1 <0>         0.0808
     72 H30         5.5386   -9.7968   -3.5790 H         1 <0>         0.0759
     73 H31         3.4427  -10.4181   -4.4627 H         1 <0>         0.0811
     74 H32         3.8702   -9.8705   -6.1119 H         1 <0>         0.0858
@<TRIPOS>BOND
     1    1    2 1
     2    1   43 1
     3    1   44 1
     4    1   45 1
     5    2    3 1
     6    3    4 am
     7    3   46 1
     8    4    5 2
     9    4    6 1
    10    6   11 1
    11    6    7 2
    12    7    8 1
    13    7   47 1
    14    8    9 1
    15    8   34 1
    16    9   16 ar
    17    9   10 ar
    18   10   11 1
    19   10   13 ar
    20   11   12 2
    21   13   14 ar
    22   13   48 1
    23   14   15 ar
    24   15   16 ar
    25   15   17 1
    26   17   18 1
    27   17   49 1
    28   18   23 ar
    29   18   19 ar
    30   19   20 ar
    31   19   50 1
    32   20   21 ar
    33   20   51 1
    34   21   22 ar
    35   21   24 1
    36   22   23 ar
    37   22   52 1
    38   23   53 1
    39   24   25 1
    40   24   54 1
    41   24   55 1
    42   25   26 1
    43   25   56 1
    44   25   57 1
    45   26   31 1
    46   26   27 1
    47   27   28 1
    48   27   58 1
    49   27   59 1
    50   28   29 1
    51   28   60 1
    52   28   61 1
    53   29   30 1
    54   29   32 1
    55   29   33 1
    56   30   31 1
    57   30   62 1
    58   30   63 1
    59   31   64 1
    60   31   65 1
    61   34   39 ar
    62   34   35 ar
    63   35   36 ar
    64   35   66 1
    65   36   37 ar
    66   36   67 1
    67   37   42 1
    68   37   38 ar
    69   38   39 ar
    70   38   40 1
    71   39   68 1
    72   40   41 1
    73   40   69 1
    74   40   70 1
    75   41   42 1
    76   41   71 1
    77   41   72 1
    78   42   73 1
    79   42   74 1
@<TRIPOS>MOLECULE
CHEMBL455591__1
   75    80     0     0     0
SMALL
USER_CHARGES

@<TRIPOS>ATOM
      1 C1          0.8925    0.3790    0.3562 C.3       1 <0>         0.0005
      2 O1          0.5627   -0.9825    0.0741 O.3       1 <0>        -0.1464
      3 N1         -0.8239   -1.2635    0.1342 N.am      1 <0>        -0.5869
      4 C2         -1.2698   -2.5114   -0.1114 C.2       1 <0>         0.5961
      5 O2         -0.4921   -3.3758   -0.4688 O.2       1 <0>        -0.5317
      6 C3         -2.6973   -2.8282    0.0526 C.2       1 <0>        -0.3110
      7 C4         -3.1486   -4.1220   -0.0917 C.2       1 <0>         0.2598
      8 N2         -4.4447   -4.4506    0.0500 N.pl3     1 <0>        -0.4217
      9 C5         -5.4151   -3.5264    0.3483 C.ar      1 <0>         0.4683
     10 C6         -5.0744   -2.1693    0.5202 C.ar      1 <0>        -0.3303
     11 C7         -3.6671   -1.7679    0.3800 C.2       1 <0>         0.4546
     12 O3         -3.3186   -0.6088    0.5231 O.2       1 <0>        -0.4803
     13 C8         -6.0794   -1.2498    0.8238 C.ar      1 <0>         0.2845
     14 N3         -7.3205   -1.6893    0.9395 N.ar      1 <0>        -0.5711
     15 C9         -7.6101   -2.9748    0.7716 C.ar      1 <0>         0.6096
     16 N4         -6.6882   -3.8805    0.4824 N.ar      1 <0>        -0.5799
     17 N5         -8.9233   -3.3824    0.9034 N.pl3     1 <0>        -0.6318
     18 C10        -9.9338   -2.4348    1.0931 C.ar      1 <0>         0.1814
     19 C11        -9.8859   -1.2217    0.4183 C.ar      1 <0>        -0.1036
     20 C12       -10.8855   -0.2879    0.6079 C.ar      1 <0>        -0.0863
     21 C13       -11.9331   -0.5593    1.4689 C.ar      1 <0>        -0.1244
     22 C14       -11.9838   -1.7661    2.1422 C.ar      1 <0>        -0.0854
     23 C15       -10.9906   -2.7068    1.9524 C.ar      1 <0>        -0.1384
     24 C16       -13.0216    0.4625    1.6741 C.3       1 <0>        -0.0974
     25 C17       -14.1371    0.2315    0.6527 C.3       1 <0>        -0.0075
     26 N6        -15.1982    1.2275    0.8527 N.4       1 <0>        -0.3877
     27 C18       -15.8166    1.0239    2.1683 C.3       1 <0>        -0.0107
     28 C19       -16.8672    2.1086    2.4156 C.3       1 <0>        -0.1892
     29 C20       -17.9413    2.0289    1.3270 C.3       1 <0>         0.2860
     30 C21       -17.2752    2.1681   -0.0449 C.3       1 <0>        -0.1897
     31 C22       -16.2095    1.0812   -0.2010 C.3       1 <0>        -0.0042
     32 F1        -18.8659    3.0636    1.5054 F         1 <0>        -0.1758
     33 F2        -18.5966    0.7953    1.4058 F         1 <0>        -0.1865
     34 C23        -4.8199   -5.7894   -0.1138 C.ar      1 <0>         0.0880
     35 C24        -4.4373   -6.7399    0.8239 C.ar      1 <0>        -0.0976
     36 C25        -4.8103   -8.0577    0.6578 C.ar      1 <0>        -0.0939
     37 C26        -5.5651   -8.4378   -0.4404 C.ar      1 <0>        -0.0715
     38 C27        -5.9475   -7.4938   -1.3757 C.ar      1 <0>        -0.0864
     39 C28        -5.5801   -6.1700   -1.2103 C.ar      1 <0>        -0.0678
     40 C29        -6.7575   -8.1564   -2.4696 C.3       1 <0>        -0.0825
     41 C30        -6.4595   -9.6648   -2.3356 C.3       1 <0>        -0.1218
     42 C31        -6.0925   -9.7988   -0.8425 C.3       1 <0>        -0.0882
     43 H1          1.9723    0.5125    0.2898 H         1 <0>         0.1146
     44 H2          0.4009    1.0294   -0.3673 H         1 <0>         0.0567
     45 H3          0.5560    0.6337    1.3612 H         1 <0>         0.0566
     46 H4         -1.4527   -0.5579    0.3522 H         1 <0>         0.4191
     47 H5         -2.4366   -4.8991   -0.3272 H         1 <0>         0.1944
     48 H6         -5.8483   -0.2038    0.9615 H         1 <0>         0.1950
     49 H7         -9.1445   -4.3260    0.8644 H         1 <0>         0.4296
     50 H8         -9.0676   -1.0088   -0.2537 H         1 <0>         0.1359
     51 H9        -10.8489    0.6556    0.0836 H         1 <0>         0.1285
     52 H10       -12.8033   -1.9750    2.8139 H         1 <0>         0.1287
     53 H11       -11.0333   -3.6510    2.4749 H         1 <0>         0.1323
     54 H12       -13.4259    0.3653    2.6817 H         1 <0>         0.0948
     55 H13       -12.6101    1.4632    1.5426 H         1 <0>         0.0966
     56 H14       -13.7329    0.3286   -0.3550 H         1 <0>         0.1367
     57 H15       -14.5486   -0.7692    0.7841 H         1 <0>         0.1341
     58 H16       -16.2929    0.0439    2.1976 H         1 <0>         0.1404
     59 H17       -15.0504    1.0778    2.9416 H         1 <0>         0.1489
     60 H18       -17.3264    1.9546    3.3921 H         1 <0>         0.1381
     61 H19       -16.3918    3.0891    2.3867 H         1 <0>         0.1223
     62 H20       -18.0261    2.0567   -0.8271 H         1 <0>         0.1382
     63 H21       -16.8083    3.1498   -0.1248 H         1 <0>         0.1223
     64 H22       -15.7333    1.1774   -1.1768 H         1 <0>         0.1477
     65 H23       -16.6774    0.1000   -0.1212 H         1 <0>         0.1396
     66 H24        -3.8486   -6.4480    1.6811 H         1 <0>         0.1342
     67 H25        -4.5123   -8.7966    1.3869 H         1 <0>         0.1351
     68 H26        -5.8823   -5.4320   -1.9385 H         1 <0>         0.1236
     69 H27        -7.8204   -7.9662   -2.3212 H         1 <0>         0.0829
     70 H28        -6.4405   -7.7936   -3.4474 H         1 <0>         0.0789
     71 H29        -7.3436  -10.2569   -2.5720 H         1 <0>         0.0815
     72 H30        -5.6194   -9.9515   -2.9683 H         1 <0>         0.0771
     73 H31        -5.3215  -10.5577   -0.7091 H         1 <0>         0.0829
     74 H32        -6.9768  -10.0499   -0.2568 H         1 <0>         0.0863
     75 H33       -14.8008    2.1540    0.8099 H         1 <0>         0.4253
@<TRIPOS>BOND
     1    1    2 1
     2    1   43 1
     3    1   44 1
     4    1   45 1
     5    2    3 1
     6    3    4 am
     7    3   46 1
     8    4    5 2
     9    4    6 1
    10    6   11 1
    11    6    7 2
    12    7    8 1
    13    7   47 1
    14    8    9 1
    15    8   34 1
    16    9   16 ar
    17    9   10 ar
    18   10   11 1
    19   10   13 ar
    20   11   12 2
    21   13   14 ar
    22   13   48 1
    23   14   15 ar
    24   15   16 ar
    25   15   17 1
    26   17   18 1
    27   17   49 1
    28   18   23 ar
    29   18   19 ar
    30   19   20 ar
    31   19   50 1
    32   20   21 ar
    33   20   51 1
    34   21   22 ar
    35   21   24 1
    36   22   23 ar
    37   22   52 1
    38   23   53 1
    39   24   25 1
    40   24   54 1
    41   24   55 1
    42   25   26 1
    43   25   56 1
    44   25   57 1
    45   26   31 1
    46   26   27 1
    47   26   75 1
    48   27   28 1
    49   27   58 1
    50   27   59 1
    51   28   29 1
    52   28   60 1
    53   28   61 1
    54   29   30 1
    55   29   32 1
    56   29   33 1
    57   30   31 1
    58   30   62 1
    59   30   63 1
    60   31   64 1
    61   31   65 1
    62   34   39 ar
    63   34   35 ar
    64   35   36 ar
    65   35   66 1
    66   36   37 ar
    67   36   67 1
    68   37   42 1
    69   37   38 ar
    70   38   39 ar
    71   38   40 1
    72   39   68 1
    73   40   41 1
    74   40   69 1
    75   40   70 1
    76   41   42 1
    77   41   71 1
    78   41   72 1
    79   42   73 1
    80   42   74 1
@<TRIPOS>MOLECULE
CHEMBL250362
   58    62     0     0     0
SMALL
USER_CHARGES

@<TRIPOS>ATOM
      1 C1          4.6552    1.3721   -3.7843 C.ar      1 <0>        -0.1697
      2 C2          4.4670    2.0906   -2.6178 C.ar      1 <0>        -0.0750
      3 C3          4.1510    1.4346   -1.4443 C.ar      1 <0>        -0.1788
      4 C4          4.0216    0.0515   -1.4368 C.ar      1 <0>         0.2285
      5 C5          4.2108   -0.6671   -2.6106 C.ar      1 <0>        -0.1836
      6 C6          4.5272   -0.0048   -3.7804 C.ar      1 <0>        -0.0753
      7 N1          3.7023   -0.6155   -0.2511 N.pl3     1 <0>        -0.6928
      8 C7          3.6750   -1.9932   -0.2213 C.ar      1 <0>         0.2881
      9 C8          4.8369   -2.7412    0.0870 C.ar      1 <0>        -0.1147
     10 C9          6.0527   -2.1020    0.3719 C.ar      1 <0>        -0.0710
     11 C10         7.1563   -2.8407    0.6659 C.ar      1 <0>        -0.1070
     12 C11         7.0937   -4.2421    0.6879 C.ar      1 <0>        -0.0151
     13 C12         5.9070   -4.8985    0.4103 C.ar      1 <0>        -0.0871
     14 C13         4.7582   -4.1543    0.1054 C.ar      1 <0>         0.1539
     15 N2          3.5977   -4.7703   -0.1654 N.ar      1 <0>        -0.4705
     16 C14         2.5093   -4.1042   -0.4527 C.ar      1 <0>         0.1687
     17 C15         2.4935   -2.7005   -0.4898 C.ar      1 <0>        -0.2108
     18 C16         1.2511   -1.9789   -0.8108 C.2       1 <0>         0.5664
     19 O1          1.2670   -0.7698   -0.9431 O.2       1 <0>        -0.5152
     20 N3          0.0963   -2.6578   -0.9582 N.am      1 <0>        -0.8507
     21 C17         8.3093   -5.0269    1.0109 C.ar      1 <0>        -0.0268
     22 C18         8.2547   -6.4209    1.0288 C.ar      1 <0>        -0.1094
     23 C19         9.3830   -7.1506    1.3291 C.ar      1 <0>        -0.0575
     24 C20        10.5827   -6.4948    1.6155 C.ar      1 <0>        -0.1275
     25 C21        10.6364   -5.0990    1.5968 C.ar      1 <0>        -0.0938
     26 C22         9.5084   -4.3712    1.2912 C.ar      1 <0>        -0.1112
     27 C23        11.7939   -7.2769    1.9383 C.2       1 <0>         0.5626
     28 O2         11.9666   -8.3676    1.4300 O.2       1 <0>        -0.5285
     29 N4         12.7074   -6.7812    2.7964 N.am      1 <0>        -0.6121
     30 C24        12.4614   -5.5250    3.5222 C.3       1 <0>         0.0560
     31 C25        12.7294   -5.7669    5.0120 C.3       1 <0>         0.0453
     32 O3         14.0265   -6.3472    5.1688 O.3       1 <0>        -0.3776
     33 C26        14.1739   -7.6271    4.5492 C.3       1 <0>         0.0473
     34 C27        13.9774   -7.4833    3.0399 C.3       1 <0>         0.0759
     35 H1          4.8982    1.8880   -4.7015 H         1 <0>         0.1193
     36 H2          4.5678    3.1659   -2.6244 H         1 <0>         0.1228
     37 H3          4.0049    1.9962   -0.5335 H         1 <0>         0.1214
     38 H4          4.1113   -1.7425   -2.6081 H         1 <0>         0.1099
     39 H5          4.6748   -0.5629   -4.6932 H         1 <0>         0.1199
     40 H6          3.4999   -0.1090    0.5510 H         1 <0>         0.4159
     41 H7          6.1124   -1.0238    0.3574 H         1 <0>         0.1373
     42 H8          8.0900   -2.3436    0.8841 H         1 <0>         0.1368
     43 H9          5.8661   -5.9776    0.4287 H         1 <0>         0.1464
     44 H10         1.5997   -4.6470   -0.6634 H         1 <0>         0.1651
     45 H11         0.0837   -3.6220   -0.8528 H         1 <0>         0.4000
     46 H12        -0.7223   -2.1823   -1.1698 H         1 <0>         0.4086
     47 H13         7.3271   -6.9278    0.8074 H         1 <0>         0.1375
     48 H14         9.3404   -8.2297    1.3436 H         1 <0>         0.1382
     49 H15        11.5634   -4.5911    1.8185 H         1 <0>         0.1402
     50 H16         9.5507   -3.2922    1.2728 H         1 <0>         0.1362
     51 H17        13.1304   -4.7490    3.1501 H         1 <0>         0.0834
     52 H18        11.4257   -5.2161    3.3810 H         1 <0>         0.1099
     53 H19        12.6875   -4.8187    5.5481 H         1 <0>         0.1098
     54 H20        11.9762   -6.4457    5.4119 H         1 <0>         0.0578
     55 H21        15.1712   -8.0172    4.7523 H         1 <0>         0.1104
     56 H22        13.4259   -8.3126    4.9474 H         1 <0>         0.0574
     57 H23        13.9452   -8.4708    2.5794 H         1 <0>         0.1048
     58 H24        14.8017   -6.9079    2.6184 H         1 <0>         0.0798
@<TRIPOS>BOND
     1    1    6 ar
     2    1    2 ar
     3    1   35 1
     4    2    3 ar
     5    2   36 1
     6    3    4 ar
     7    3   37 1
     8    4    5 ar
     9    4    7 1
    10    5    6 ar
    11    5   38 1
    12    6   39 1
    13    7    8 1
    14    7   40 1
    15    8   17 ar
    16    8    9 ar
    17    9   14 ar
    18    9   10 ar
    19   10   11 ar
    20   10   41 1
    21   11   12 ar
    22   11   42 1
    23   12   13 ar
    24   12   21 1
    25   13   14 ar
    26   13   43 1
    27   14   15 ar
    28   15   16 ar
    29   16   17 ar
    30   16   44 1
    31   17   18 1
    32   18   19 2
    33   18   20 am
    34   20   45 1
    35   20   46 1
    36   21   26 ar
    37   21   22 ar
    38   22   23 ar
    39   22   47 1
    40   23   24 ar
    41   23   48 1
    42   24   25 ar
    43   24   27 1
    44   25   26 ar
    45   25   49 1
    46   26   50 1
    47   27   28 2
    48   27   29 am
    49   29   34 1
    50   29   30 1
    51   30   31 1
    52   30   51 1
    53   30   52 1
    54   31   32 1
    55   31   53 1
    56   31   54 1
    57   32   33 1
    58   33   34 1
    59   33   55 1
    60   33   56 1
    61   34   57 1
    62   34   58 1
@<TRIPOS>MOLECULE
CHEMBL250362__1
   59    63     0     0     0
SMALL
USER_CHARGES

@<TRIPOS>ATOM
      1 C1          4.6684    1.3645   -3.7893 C.ar      1 <0>        -0.1491
      2 C2          4.4831    2.0844   -2.6231 C.ar      1 <0>        -0.0705
      3 C3          4.1627    1.4305   -1.4497 C.ar      1 <0>        -0.1600
      4 C4          4.0261    0.0480   -1.4418 C.ar      1 <0>         0.2030
      5 C5          4.2124   -0.6719   -2.6152 C.ar      1 <0>        -0.1843
      6 C6          4.5332   -0.0117   -3.7849 C.ar      1 <0>        -0.0744
      7 N1          3.7024   -0.6169   -0.2561 N.pl3     1 <0>        -0.7063
      8 C7          3.6747   -1.9945   -0.2240 C.ar      1 <0>         0.4045
      9 C8          4.8367   -2.7423    0.0845 C.ar      1 <0>        -0.1097
     10 C9          6.0529   -2.1030    0.3672 C.ar      1 <0>        -0.0317
     11 C10         7.1567   -2.8414    0.6615 C.ar      1 <0>        -0.0975
     12 C11         7.0937   -4.2428    0.6859 C.ar      1 <0>         0.0722
     13 C12         5.9066   -4.8993    0.4104 C.ar      1 <0>        -0.1522
     14 C13         4.7577   -4.1554    0.1053 C.ar      1 <0>         0.1640
     15 N2          3.5968   -4.7715   -0.1635 N.ar      1 <0>        -0.4619
     16 C14         2.5084   -4.1056   -0.4514 C.ar      1 <0>         0.2397
     17 C15         2.4928   -2.7019   -0.4903 C.ar      1 <0>        -0.2157
     18 C16         1.2504   -1.9805   -0.8114 C.2       1 <0>         0.5679
     19 O1          1.2660   -0.7715   -0.9439 O.2       1 <0>        -0.4840
     20 N3          0.0956   -2.6596   -0.9587 N.am      1 <0>        -0.8432
     21 C17         8.3093   -5.0274    1.0091 C.ar      1 <0>        -0.0701
     22 C18         8.2544   -6.4214    1.0293 C.ar      1 <0>        -0.0931
     23 C19         9.3827   -7.1508    1.3298 C.ar      1 <0>        -0.0620
     24 C20        10.5829   -6.4949    1.6140 C.ar      1 <0>        -0.0969
     25 C21        10.6370   -5.0991    1.5930 C.ar      1 <0>        -0.0951
     26 C22         9.5089   -4.3715    1.2872 C.ar      1 <0>        -0.0913
     27 C23        11.7942   -7.2768    1.9371 C.2       1 <0>         0.5556
     28 O2         11.9662   -8.3683    1.4303 O.2       1 <0>        -0.5206
     29 N4         12.7085   -6.7799    2.7937 N.am      1 <0>        -0.6085
     30 C24        12.4634   -5.5225    3.5177 C.3       1 <0>         0.0549
     31 C25        12.7326   -5.7621    5.0077 C.3       1 <0>         0.0452
     32 O3         14.0296   -6.3425    5.1643 O.3       1 <0>        -0.3745
     33 C26        14.1761   -7.6235    4.5466 C.3       1 <0>         0.0465
     34 C27        13.9785   -7.4821    3.0372 C.3       1 <0>         0.0749
     35 H1          4.9148    1.8788   -4.7064 H         1 <0>         0.1281
     36 H2          4.5895    3.1591   -2.6300 H         1 <0>         0.1322
     37 H3          4.0188    1.9932   -0.5392 H         1 <0>         0.1291
     38 H4          4.1073   -1.7468   -2.6124 H         1 <0>         0.1049
     39 H5          4.6786   -0.5709   -4.6974 H         1 <0>         0.1264
     40 H6          3.4972   -0.1089    0.5444 H         1 <0>         0.4319
     41 H7          6.1129   -1.0248    0.3510 H         1 <0>         0.1645
     42 H8          8.0906   -2.3442    0.8781 H         1 <0>         0.1607
     43 H9          5.8654   -5.9784    0.4306 H         1 <0>         0.1645
     44 H10         1.5985   -4.6485   -0.6607 H         1 <0>         0.2129
     45 H11         0.0831   -3.6238   -0.8531 H         1 <0>         0.3978
     46 H12        -0.7230   -2.1843   -1.1703 H         1 <0>         0.4227
     47 H13         7.3265   -6.9283    0.8095 H         1 <0>         0.1363
     48 H14         9.3399   -8.2299    1.3461 H         1 <0>         0.1455
     49 H15        11.5643   -4.5911    1.8130 H         1 <0>         0.1490
     50 H16         9.5515   -3.2925    1.2670 H         1 <0>         0.1415
     51 H17        13.1324   -4.7473    3.1438 H         1 <0>         0.0868
     52 H18        11.4277   -5.2136    3.3767 H         1 <0>         0.1052
     53 H19        12.6914   -4.8132    5.5423 H         1 <0>         0.1111
     54 H20        11.9794   -6.4401    5.4092 H         1 <0>         0.0577
     55 H21        15.1735   -8.0136    4.7495 H         1 <0>         0.1139
     56 H22        13.4282   -8.3082    4.9465 H         1 <0>         0.0584
     57 H23        13.9456   -8.4702    2.5783 H         1 <0>         0.1069
     58 H24        14.8026   -6.9075    2.6142 H         1 <0>         0.0837
     59 H25         3.5635   -5.7407   -0.1440 H         1 <0>         0.4526
@<TRIPOS>BOND
     1    1    6 ar
     2    1    2 ar
     3    1   35 1
     4    2    3 ar
     5    2   36 1
     6    3    4 ar
     7    3   37 1
     8    4    5 ar
     9    4    7 1
    10    5    6 ar
    11    5   38 1
    12    6   39 1
    13    7    8 1
    14    7   40 1
    15    8   17 ar
    16    8    9 ar
    17    9   14 ar
    18    9   10 ar
    19   10   11 ar
    20   10   41 1
    21   11   12 ar
    22   11   42 1
    23   12   13 ar
    24   12   21 1
    25   13   14 ar
    26   13   43 1
    27   14   15 ar
    28   15   16 ar
    29   15   59 1
    30   16   17 ar
    31   16   44 1
    32   17   18 1
    33   18   19 2
    34   18   20 am
    35   20   45 1
    36   20   46 1
    37   21   26 ar
    38   21   22 ar
    39   22   23 ar
    40   22   47 1
    41   23   24 ar
    42   23   48 1
    43   24   25 ar
    44   24   27 1
    45   25   26 ar
    46   25   49 1
    47   26   50 1
    48   27   28 2
    49   27   29 am
    50   29   34 1
    51   29   30 1
    52   30   31 1
    53   30   51 1
    54   30   52 1
    55   31   32 1
    56   31   53 1
    57   31   54 1
    58   32   33 1
    59   33   34 1
    60   33   55 1
    61   33   56 1
    62   34   57 1
    63   34   58 1
@<TRIPOS>MOLECULE
CHEMBL250161
   60    64     0     0     0
SMALL
USER_CHARGES

@<TRIPOS>ATOM
      1 C1          4.6073    1.3340   -3.8257 C.ar      1 <0>        -0.1699
      2 C2          4.4271    2.0659   -2.6662 C.ar      1 <0>        -0.0751
      3 C3          4.1277    1.4228   -1.4813 C.ar      1 <0>        -0.1788
      4 C4          4.0071    0.0391   -1.4551 C.ar      1 <0>         0.2291
      5 C5          4.1883   -0.6930   -2.6217 C.ar      1 <0>        -0.1837
      6 C6          4.4880   -0.0436   -3.8031 C.ar      1 <0>        -0.0753
      7 N1          3.7047   -0.6149   -0.2578 N.pl3     1 <0>        -0.6927
      8 C7          3.6738   -1.9921   -0.2136 C.ar      1 <0>         0.2879
      9 C8          4.8359   -2.7401    0.0937 C.ar      1 <0>        -0.1151
     10 C9          6.0556   -2.1015    0.3628 C.ar      1 <0>        -0.0714
     11 C10         7.1595   -2.8402    0.6561 C.ar      1 <0>        -0.1070
     12 C11         7.0932   -4.2411    0.6931 C.ar      1 <0>        -0.0137
     13 C12         5.9026   -4.8970    0.4312 C.ar      1 <0>        -0.0879
     14 C13         4.7536   -4.1528    0.1274 C.ar      1 <0>         0.1541
     15 N2          3.5893   -4.7683   -0.1283 N.ar      1 <0>        -0.4705
     16 C14         2.5007   -4.1021   -0.4144 C.ar      1 <0>         0.1685
     17 C15         2.4884   -2.6988   -0.4657 C.ar      1 <0>        -0.2111
     18 C16         1.2456   -1.9770   -0.7849 C.2       1 <0>         0.5664
     19 O1          1.2640   -0.7696   -0.9309 O.2       1 <0>        -0.5152
     20 N3          0.0876   -2.6541   -0.9153 N.am      1 <0>        -0.8508
     21 C17         8.3090   -5.0260    1.0151 C.ar      1 <0>        -0.0290
     22 C18         8.2508   -6.4196    1.0478 C.ar      1 <0>        -0.1095
     23 C19         9.3792   -7.1493    1.3471 C.ar      1 <0>        -0.0589
     24 C20        10.5829   -6.4939    1.6176 C.ar      1 <0>        -0.1249
     25 C21        10.6403   -5.0986    1.5842 C.ar      1 <0>        -0.0927
     26 C22         9.5120   -4.3707    1.2795 C.ar      1 <0>        -0.1118
     27 C23        11.7944   -7.2761    1.9394 C.2       1 <0>         0.5598
     28 O2         11.9675   -8.3659    1.4294 O.2       1 <0>        -0.5322
     29 N4         12.7075   -6.7813    2.7984 N.am      1 <0>        -0.6065
     30 C24        12.4537   -5.5270    3.5203 C.3       1 <0>         0.0878
     31 C25        12.6407   -5.7750    5.0204 C.3       1 <0>        -0.1371
     32 C26        14.0285   -6.3716    5.2657 C.3       1 <0>        -0.1219
     33 C27        14.1456   -7.7119    4.5363 C.3       1 <0>        -0.1359
     34 C28        13.9731   -7.4891    3.0353 C.3       1 <0>         0.1100
     35 H1          4.8373    1.8397   -4.7518 H         1 <0>         0.1192
     36 H2          4.5210    3.1416   -2.6873 H         1 <0>         0.1227
     37 H3          3.9878    1.9949   -0.5761 H         1 <0>         0.1212
     38 H4          4.0956   -1.7689   -2.6047 H         1 <0>         0.1100
     39 H5          4.6294   -0.6122   -4.7103 H         1 <0>         0.1198
     40 H6          3.5165   -0.0996    0.5422 H         1 <0>         0.4158
     41 H7          6.1182   -1.0236    0.3368 H         1 <0>         0.1371
     42 H8          8.0961   -2.3435    0.8622 H         1 <0>         0.1368
     43 H9          5.8589   -5.9757    0.4611 H         1 <0>         0.1463
     44 H10         1.5880   -4.6444   -0.6125 H         1 <0>         0.1649
     45 H11         0.0730   -3.6170   -0.7989 H         1 <0>         0.4000
     46 H12        -0.7312   -2.1785   -1.1256 H         1 <0>         0.4084
     47 H13         7.3201   -6.9261    0.8386 H         1 <0>         0.1368
     48 H14         9.3338   -8.2280    1.3731 H         1 <0>         0.1376
     49 H15        11.5703   -4.5910    1.7935 H         1 <0>         0.1402
     50 H16         9.5571   -3.2921    1.2496 H         1 <0>         0.1354
     51 H17        13.1567   -4.7642    3.1856 H         1 <0>         0.0733
     52 H18        11.4331   -5.1955    3.3291 H         1 <0>         0.1020
     53 H19        12.5497   -4.8318    5.5591 H         1 <0>         0.0778
     54 H20        11.8784   -6.4703    5.3720 H         1 <0>         0.0679
     55 H21        14.7895   -5.6869    4.8915 H         1 <0>         0.0655
     56 H22        14.1735   -6.5262    6.3349 H         1 <0>         0.0674
     57 H23        15.1258   -8.1474    4.7305 H         1 <0>         0.0777
     58 H24        13.3691   -8.3890    4.8924 H         1 <0>         0.0671
     59 H25        13.9546   -8.4517    2.5242 H         1 <0>         0.0944
     60 H26        14.8027   -6.8898    2.6602 H         1 <0>         0.0697
@<TRIPOS>BOND
     1    1    6 ar
     2    1    2 ar
     3    1   35 1
     4    2    3 ar
     5    2   36 1
     6    3    4 ar
     7    3   37 1
     8    4    5 ar
     9    4    7 1
    10    5    6 ar
    11    5   38 1
    12    6   39 1
    13    7    8 1
    14    7   40 1
    15    8   17 ar
    16    8    9 ar
    17    9   14 ar
    18    9   10 ar
    19   10   11 ar
    20   10   41 1
    21   11   12 ar
    22   11   42 1
    23   12   13 ar
    24   12   21 1
    25   13   14 ar
    26   13   43 1
    27   14   15 ar
    28   15   16 ar
    29   16   17 ar
    30   16   44 1
    31   17   18 1
    32   18   19 2
    33   18   20 am
    34   20   45 1
    35   20   46 1
    36   21   26 ar
    37   21   22 ar
    38   22   23 ar
    39   22   47 1
    40   23   24 ar
    41   23   48 1
    42   24   25 ar
    43   24   27 1
    44   25   26 ar
    45   25   49 1
    46   26   50 1
    47   27   28 2
    48   27   29 am
    49   29   34 1
    50   29   30 1
    51   30   31 1
    52   30   51 1
    53   30   52 1
    54   31   32 1
    55   31   53 1
    56   31   54 1
    57   32   33 1
    58   32   55 1
    59   32   56 1
    60   33   34 1
    61   33   57 1
    62   33   58 1
    63   34   59 1
    64   34   60 1
@<TRIPOS>MOLECULE
CHEMBL250161__1
   61    65     0     0     0
SMALL
USER_CHARGES

@<TRIPOS>ATOM
      1 C1          4.6269    1.3260   -3.8296 C.ar      1 <0>        -0.1494
      2 C2          4.4498    2.0590   -2.6703 C.ar      1 <0>        -0.0705
      3 C3          4.1438    1.4178   -1.4861 C.ar      1 <0>        -0.1601
      4 C4          4.0134    0.0350   -1.4603 C.ar      1 <0>         0.2036
      5 C5          4.1915   -0.6982   -2.6268 C.ar      1 <0>        -0.1845
      6 C6          4.4979   -0.0507   -3.8075 C.ar      1 <0>        -0.0744
      7 N1          3.7043   -0.6171   -0.2637 N.pl3     1 <0>        -0.7063
      8 C7          3.6732   -1.9942   -0.2174 C.ar      1 <0>         0.4043
      9 C8          4.8355   -2.7419    0.0903 C.ar      1 <0>        -0.1101
     10 C9          6.0554   -2.1030    0.3577 C.ar      1 <0>        -0.0320
     11 C10         7.1593   -2.8414    0.6514 C.ar      1 <0>        -0.0977
     12 C11         7.0929   -4.2423    0.6905 C.ar      1 <0>         0.0737
     13 C12         5.9021   -4.8984    0.4303 C.ar      1 <0>        -0.1530
     14 C13         4.7530   -4.1545    0.1261 C.ar      1 <0>         0.1642
     15 N2          3.5885   -4.7702   -0.1279 N.ar      1 <0>        -0.4620
     16 C14         2.4998   -4.1043   -0.4147 C.ar      1 <0>         0.2394
     17 C15         2.4876   -2.7011   -0.4677 C.ar      1 <0>        -0.2160
     18 C16         1.2447   -1.9797   -0.7872 C.2       1 <0>         0.5679
     19 O1          1.2628   -0.7723   -0.9335 O.2       1 <0>        -0.4841
     20 N3          0.0868   -2.6570   -0.9176 N.am      1 <0>        -0.8433
     21 C17         8.3088   -5.0268    1.0128 C.ar      1 <0>        -0.0723
     22 C18         8.2505   -6.4204    1.0476 C.ar      1 <0>        -0.0932
     23 C19         9.3790   -7.1498    1.3473 C.ar      1 <0>        -0.0634
     24 C20        10.5829   -6.4942    1.6161 C.ar      1 <0>        -0.0942
     25 C21        10.6405   -5.0989    1.5805 C.ar      1 <0>        -0.0940
     26 C22         9.5121   -4.3713    1.2755 C.ar      1 <0>        -0.0919
     27 C23        11.7945   -7.2760    1.9383 C.2       1 <0>         0.5526
     28 O2         11.9673   -8.3666    1.4297 O.2       1 <0>        -0.5245
     29 N4         12.7082   -6.7801    2.7960 N.am      1 <0>        -0.6026
     30 C24        12.4550   -5.5248    3.5162 C.3       1 <0>         0.0873
     31 C25        12.6428   -5.7706    5.0166 C.3       1 <0>        -0.1369
     32 C26        14.0306   -6.3671    5.2620 C.3       1 <0>        -0.1235
     33 C27        14.1471   -7.7084    4.5345 C.3       1 <0>        -0.1366
     34 C28        13.9738   -7.4878    3.0332 C.3       1 <0>         0.1089
     35 H1          4.8621    1.8303   -4.7552 H         1 <0>         0.1280
     36 H2          4.5514    3.1340   -2.6910 H         1 <0>         0.1321
     37 H3          4.0064    1.9908   -0.5810 H         1 <0>         0.1290
     38 H4          4.0912   -1.7734   -2.6102 H         1 <0>         0.1050
     39 H5          4.6368   -0.6201   -4.7146 H         1 <0>         0.1264
     40 H6          3.5115   -0.1005    0.5344 H         1 <0>         0.4318
     41 H7          6.1181   -1.0252    0.3300 H         1 <0>         0.1643
     42 H8          8.0962   -2.3445    0.8561 H         1 <0>         0.1606
     43 H9          5.8582   -5.9771    0.4618 H         1 <0>         0.1645
     44 H10         1.5870   -4.6469   -0.6118 H         1 <0>         0.2127
     45 H11         0.0724   -3.6198   -0.8010 H         1 <0>         0.3977
     46 H12        -0.7321   -2.1816   -1.1281 H         1 <0>         0.4226
     47 H13         7.3196   -6.9270    0.8398 H         1 <0>         0.1355
     48 H14         9.3335   -8.2285    1.3749 H         1 <0>         0.1449
     49 H15        11.5707   -4.5911    1.7885 H         1 <0>         0.1490
     50 H16         9.5573   -3.2928    1.2439 H         1 <0>         0.1406
     51 H17        13.1579   -4.7625    3.1800 H         1 <0>         0.0770
     52 H18        11.4344   -5.1933    3.3251 H         1 <0>         0.0969
     53 H19        12.5523   -4.8266    5.5540 H         1 <0>         0.0795
     54 H20        11.8806   -6.4652    5.3696 H         1 <0>         0.0678
     55 H21        14.7915   -5.6829    4.8863 H         1 <0>         0.0674
     56 H22        14.1762   -6.5201    6.3313 H         1 <0>         0.0702
     57 H23        15.1273   -8.1438    4.7288 H         1 <0>         0.0812
     58 H24        13.3707   -8.3849    4.8920 H         1 <0>         0.0675
     59 H25        13.9549   -8.4511    2.5236 H         1 <0>         0.0964
     60 H26        14.8033   -6.8891    2.6568 H         1 <0>         0.0736
     61 H27         3.5528   -5.7391   -0.0983 H         1 <0>         0.4526
@<TRIPOS>BOND
     1    1    6 ar
     2    1    2 ar
     3    1   35 1
     4    2    3 ar
     5    2   36 1
     6    3    4 ar
     7    3   37 1
     8    4    5 ar
     9    4    7 1
    10    5    6 ar
    11    5   38 1
    12    6   39 1
    13    7    8 1
    14    7   40 1
    15    8   17 ar
    16    8    9 ar
    17    9   14 ar
    18    9   10 ar
    19   10   11 ar
    20   10   41 1
    21   11   12 ar
    22   11   42 1
    23   12   13 ar
    24   12   21 1
    25   13   14 ar
    26   13   43 1
    27   14   15 ar
    28   15   16 ar
    29   15   61 1
    30   16   17 ar
    31   16   44 1
    32   17   18 1
    33   18   19 2
    34   18   20 am
    35   20   45 1
    36   20   46 1
    37   21   26 ar
    38   21   22 ar
    39   22   23 ar
    40   22   47 1
    41   23   24 ar
    42   23   48 1
    43   24   25 ar
    44   24   27 1
    45   25   26 ar
    46   25   49 1
    47   26   50 1
    48   27   28 2
    49   27   29 am
    50   29   34 1
    51   29   30 1
    52   30   31 1
    53   30   51 1
    54   30   52 1
    55   31   32 1
    56   31   53 1
    57   31   54 1
    58   32   33 1
    59   32   55 1
    60   32   56 1
    61   33   34 1
    62   33   57 1
    63   33   58 1
    64   34   59 1
    65   34   60 1
@<TRIPOS>MOLECULE
CHEMBL250571
   55    58     0     0     0
SMALL
USER_CHARGES

@<TRIPOS>ATOM
      1 C1          4.4840   -3.9637    3.5244 C.3       1 <0>        -0.1094
      2 C2          3.3090   -4.0179    2.5824 C.ar      1 <0>        -0.1354
      3 C3          3.4558   -4.5816    1.3279 C.ar      1 <0>        -0.0717
      4 C4          2.3812   -4.6333    0.4624 C.ar      1 <0>        -0.1840
      5 C5          1.1513   -4.1183    0.8531 C.ar      1 <0>         0.2269
      6 C6          1.0073   -3.5530    2.1136 C.ar      1 <0>        -0.1756
      7 C7          2.0851   -3.5093    2.9763 C.ar      1 <0>        -0.0411
      8 C8          1.9283   -2.9018    4.3465 C.3       1 <0>        -0.1176
      9 N1          0.0617   -4.1685   -0.0204 N.pl3     1 <0>        -0.6929
     10 C9          0.1678   -4.8455   -1.2163 C.ar      1 <0>         0.2895
     11 C10        -0.1278   -6.2271   -1.3030 C.ar      1 <0>        -0.1122
     12 C11        -0.5383   -6.9502   -0.1732 C.ar      1 <0>        -0.0703
     13 C12        -0.8174   -8.2772   -0.2801 C.ar      1 <0>        -0.1054
     14 C13        -0.6989   -8.9355   -1.5130 C.ar      1 <0>        -0.0242
     15 C14        -0.2957   -8.2467   -2.6434 C.ar      1 <0>        -0.0812
     16 C15        -0.0042   -6.8781   -2.5539 C.ar      1 <0>         0.1521
     17 N2          0.3870   -6.1910   -3.6378 N.ar      1 <0>        -0.4701
     18 C16         0.6659   -4.9141   -3.5862 C.ar      1 <0>         0.1690
     19 C17         0.5667   -4.1867   -2.3892 C.ar      1 <0>        -0.2095
     20 C18         0.8819   -2.7491   -2.3642 C.2       1 <0>         0.5663
     21 O1          0.8847   -2.1453   -1.3083 O.2       1 <0>        -0.5143
     22 N3          1.1675   -2.1017   -3.5113 N.am      1 <0>        -0.8507
     23 C19        -1.0081  -10.3833   -1.6059 C.ar      1 <0>         0.0042
     24 C20        -0.8877  -11.0474   -2.8253 C.ar      1 <0>        -0.1275
     25 C21        -1.1763  -12.3946   -2.9057 C.ar      1 <0>        -0.0194
     26 C22        -1.5843  -13.0857   -1.7790 C.ar      1 <0>        -0.6577
     27 C23        -1.7060  -12.4315   -0.5662 C.ar      1 <0>        -0.0203
     28 C24        -1.4146  -11.0858   -0.4728 C.ar      1 <0>        -0.1271
     29 S1         -1.9510  -14.8056   -1.8891 S.o2      1 <0>         2.4995
     30 O2         -2.8734  -15.0479   -0.8356 O.2       1 <0>        -0.9359
     31 O3         -2.3286  -15.0098   -3.2437 O.2       1 <0>        -0.9357
     32 C25        -0.3776  -15.6406   -1.5464 C.3       1 <0>        -0.6501
     33 H1          4.5068   -4.8702    4.1294 H         1 <0>         0.0648
     34 H2          5.4071   -3.8871    2.9498 H         1 <0>         0.0617
     35 H3          4.3881   -3.0948    4.1754 H         1 <0>         0.0653
     36 H4          4.4122   -4.9813    1.0248 H         1 <0>         0.1196
     37 H5          2.4966   -5.0732   -0.5171 H         1 <0>         0.1094
     38 H6          0.0527   -3.1518    2.4204 H         1 <0>         0.1213
     39 H7          2.1510   -1.8358    4.2990 H         1 <0>         0.0717
     40 H8          0.9043   -3.0439    4.6920 H         1 <0>         0.0656
     41 H9          2.6162   -3.3861    5.0396 H         1 <0>         0.0698
     42 H10        -0.7693   -3.7270    0.2148 H         1 <0>         0.4159
     43 H11        -0.6322   -6.4536    0.7813 H         1 <0>         0.1384
     44 H12        -1.1331   -8.8293    0.5928 H         1 <0>         0.1377
     45 H13        -0.2063   -8.7602   -3.5892 H         1 <0>         0.1473
     46 H14         0.9771   -4.4061   -4.4870 H         1 <0>         0.1656
     47 H15         1.1653   -2.5832   -4.3534 H         1 <0>         0.3999
     48 H16         1.3752   -1.1544   -3.4949 H         1 <0>         0.4087
     49 H17        -0.5696  -10.5088   -3.7056 H         1 <0>         0.1392
     50 H18        -1.0837  -12.9102   -3.8501 H         1 <0>         0.1470
     51 H19        -2.0253  -12.9759    0.3102 H         1 <0>         0.1467
     52 H20        -1.5052  -10.5771    0.4756 H         1 <0>         0.1383
     53 H21        -0.0296  -15.3655   -0.5507 H         1 <0>         0.1319
     54 H22        -0.5208  -16.7200   -1.5958 H         1 <0>         0.1342
     55 H23         0.3631  -15.3381   -2.2866 H         1 <0>         0.1320
@<TRIPOS>BOND
     1    1    2 1
     2    1   33 1
     3    1   34 1
     4    1   35 1
     5    2    7 ar
     6    2    3 ar
     7    3    4 ar
     8    3   36 1
     9    4    5 ar
    10    4   37 1
    11    5    6 ar
    12    5    9 1
    13    6    7 ar
    14    6   38 1
    15    7    8 1
    16    8   39 1
    17    8   40 1
    18    8   41 1
    19    9   10 1
    20    9   42 1
    21   10   19 ar
    22   10   11 ar
    23   11   16 ar
    24   11   12 ar
    25   12   13 ar
    26   12   43 1
    27   13   14 ar
    28   13   44 1
    29   14   15 ar
    30   14   23 1
    31   15   16 ar
    32   15   45 1
    33   16   17 ar
    34   17   18 ar
    35   18   19 ar
    36   18   46 1
    37   19   20 1
    38   20   21 2
    39   20   22 am
    40   22   47 1
    41   22   48 1
    42   23   28 ar
    43   23   24 ar
    44   24   25 ar
    45   24   49 1
    46   25   26 ar
    47   25   50 1
    48   26   27 ar
    49   26   29 1
    50   27   28 ar
    51   27   51 1
    52   28   52 1
    53   29   30 2
    54   29   31 2
    55   29   32 1
    56   32   53 1
    57   32   54 1
    58   32   55 1
@<TRIPOS>MOLECULE
CHEMBL250571__1
   56    59     0     0     0
SMALL
USER_CHARGES

@<TRIPOS>ATOM
      1 C1          4.4840   -3.9637    3.5244 C.3       1 <0>        -0.1182
      2 C2          3.3090   -4.0179    2.5824 C.ar      1 <0>        -0.1132
      3 C3          3.4558   -4.5816    1.3279 C.ar      1 <0>        -0.0720
      4 C4          2.3812   -4.6333    0.4624 C.ar      1 <0>        -0.1851
      5 C5          1.1513   -4.1183    0.8531 C.ar      1 <0>         0.2006
      6 C6          1.0073   -3.5530    2.1136 C.ar      1 <0>        -0.1576
      7 C7          2.0851   -3.5093    2.9763 C.ar      1 <0>        -0.0354
      8 C8          1.9283   -2.9018    4.3465 C.3       1 <0>        -0.1242
      9 N1          0.0617   -4.1685   -0.0204 N.pl3     1 <0>        -0.7062
     10 C9          0.1678   -4.8455   -1.2163 C.ar      1 <0>         0.4066
     11 C10        -0.1278   -6.2271   -1.3030 C.ar      1 <0>        -0.1072
     12 C11        -0.5383   -6.9502   -0.1732 C.ar      1 <0>        -0.0310
     13 C12        -0.8174   -8.2772   -0.2801 C.ar      1 <0>        -0.0951
     14 C13        -0.6989   -8.9355   -1.5130 C.ar      1 <0>         0.0622
     15 C14        -0.2957   -8.2467   -2.6434 C.ar      1 <0>        -0.1461
     16 C15        -0.0042   -6.8781   -2.5539 C.ar      1 <0>         0.1619
     17 N2          0.3870   -6.1910   -3.6378 N.ar      1 <0>        -0.4616
     18 C16         0.6659   -4.9141   -3.5862 C.ar      1 <0>         0.2406
     19 C17         0.5667   -4.1867   -2.3892 C.ar      1 <0>        -0.2147
     20 C18         0.8819   -2.7491   -2.3642 C.2       1 <0>         0.5677
     21 O1          0.8847   -2.1453   -1.3083 O.2       1 <0>        -0.4828
     22 N3          1.1675   -2.1017   -3.5113 N.am      1 <0>        -0.8432
     23 C19        -1.0081  -10.3833   -1.6059 C.ar      1 <0>        -0.0381
     24 C20        -0.8877  -11.0474   -2.8253 C.ar      1 <0>        -0.1130
     25 C21        -1.1763  -12.3946   -2.9057 C.ar      1 <0>        -0.0215
     26 C22        -1.5843  -13.0857   -1.7790 C.ar      1 <0>        -0.6363
     27 C23        -1.7060  -12.4315   -0.5662 C.ar      1 <0>        -0.0196
     28 C24        -1.4146  -11.0858   -0.4728 C.ar      1 <0>        -0.1083
     29 S1         -1.9510  -14.8056   -1.8891 S.o2      1 <0>         2.4943
     30 O2         -2.8734  -15.0479   -0.8356 O.2       1 <0>        -0.9275
     31 O3         -2.3286  -15.0098   -3.2437 O.2       1 <0>        -0.9290
     32 C25        -0.3776  -15.6406   -1.5464 C.3       1 <0>        -0.6475
     33 H1          4.5068   -4.8702    4.1294 H         1 <0>         0.0718
     34 H2          5.4071   -3.8871    2.9498 H         1 <0>         0.0669
     35 H3          4.3881   -3.0948    4.1754 H         1 <0>         0.0715
     36 H4          4.4122   -4.9813    1.0248 H         1 <0>         0.1260
     37 H5          2.4966   -5.0732   -0.5171 H         1 <0>         0.1044
     38 H6          0.0527   -3.1518    2.4204 H         1 <0>         0.1289
     39 H7          2.1510   -1.8358    4.2990 H         1 <0>         0.0780
     40 H8          0.9043   -3.0439    4.6920 H         1 <0>         0.0703
     41 H9          2.6162   -3.3861    5.0396 H         1 <0>         0.0750
     42 H10        -0.7693   -3.7270    0.2148 H         1 <0>         0.4319
     43 H11        -0.6322   -6.4536    0.7813 H         1 <0>         0.1656
     44 H12        -1.1331   -8.8293    0.5928 H         1 <0>         0.1616
     45 H13        -0.2063   -8.7602   -3.5892 H         1 <0>         0.1654
     46 H14         0.9771   -4.4061   -4.4870 H         1 <0>         0.2135
     47 H15         1.1653   -2.5832   -4.3534 H         1 <0>         0.3977
     48 H16         1.3752   -1.1544   -3.4949 H         1 <0>         0.4228
     49 H17        -0.5696  -10.5088   -3.7056 H         1 <0>         0.1379
     50 H18        -1.0837  -12.9102   -3.8501 H         1 <0>         0.1539
     51 H19        -2.0253  -12.9759    0.3102 H         1 <0>         0.1554
     52 H20        -1.5052  -10.5771    0.4756 H         1 <0>         0.1435
     53 H21        -0.0296  -15.3655   -0.5507 H         1 <0>         0.1335
     54 H22        -0.5208  -16.7200   -1.5958 H         1 <0>         0.1396
     55 H23         0.3631  -15.3381   -2.2866 H         1 <0>         0.1327
     56 H24         0.4658   -6.6555   -4.4857 H         1 <0>         0.4528
@<TRIPOS>BOND
     1    1    2 1
     2    1   33 1
     3    1   34 1
     4    1   35 1
     5    2    7 ar
     6    2    3 ar
     7    3    4 ar
     8    3   36 1
     9    4    5 ar
    10    4   37 1
    11    5    6 ar
    12    5    9 1
    13    6    7 ar
    14    6   38 1
    15    7    8 1
    16    8   39 1
    17    8   40 1
    18    8   41 1
    19    9   10 1
    20    9   42 1
    21   10   19 ar
    22   10   11 ar
    23   11   16 ar
    24   11   12 ar
    25   12   13 ar
    26   12   43 1
    27   13   14 ar
    28   13   44 1
    29   14   15 ar
    30   14   23 1
    31   15   16 ar
    32   15   45 1
    33   16   17 ar
    34   17   18 ar
    35   17   56 1
    36   18   19 ar
    37   18   46 1
    38   19   20 1
    39   20   21 2
    40   20   22 am
    41   22   47 1
    42   22   48 1
    43   23   28 ar
    44   23   24 ar
    45   24   25 ar
    46   24   49 1
    47   25   26 ar
    48   25   50 1
    49   26   27 ar
    50   26   29 1
    51   27   28 ar
    52   27   51 1
    53   28   52 1
    54   29   30 2
    55   29   31 2
    56   29   32 1
    57   32   53 1
    58   32   54 1
    59   32   55 1
@<TRIPOS>MOLECULE
CHEMBL574738
   69    72     0     0     0
SMALL
USER_CHARGES

@<TRIPOS>ATOM
      1 C1         -1.8363    1.8103   -1.4722 C.3       1 <0>        -0.1886
      2 C2         -1.6365    0.2944   -1.4178 C.3       1 <0>        -0.0094
      3 N1         -2.9083   -0.3550   -1.0733 N.4       1 <0>        -0.3871
      4 C3         -3.3047    0.0354    0.2861 C.3       1 <0>        -0.0052
      5 C4         -4.6389   -0.6260    0.6384 C.3       1 <0>         0.0283
      6 N2         -4.4966   -2.0863    0.5514 N.3       1 <0>        -0.5297
      7 C5         -4.0759   -2.4902   -0.7977 C.3       1 <0>         0.0223
      8 C6         -2.7463   -1.8135   -1.1381 C.3       1 <0>        -0.0008
      9 C7         -5.7431   -2.7606    0.9381 C.3       1 <0>         0.0809
     10 C8         -5.4922   -4.2403    1.0747 C.ar      1 <0>        -0.0649
     11 C9         -5.8432   -5.0974    0.0476 C.ar      1 <0>        -0.0933
     12 C10        -5.6142   -6.4537    0.1696 C.ar      1 <0>        -0.0875
     13 C11        -5.0308   -6.9569    1.3252 C.ar      1 <0>         0.1812
     14 C12        -4.6796   -6.0937    2.3545 C.ar      1 <0>        -0.1024
     15 C13        -4.9064   -4.7374    2.2242 C.ar      1 <0>        -0.1362
     16 C14        -4.5199   -3.7991    3.3383 C.3       1 <0>         0.5103
     17 F1         -3.9503   -4.5296    4.3867 F         1 <0>        -0.1764
     18 F2         -3.5923   -2.8665    2.8619 F         1 <0>        -0.1629
     19 F3         -5.6583   -3.1301    3.8007 F         1 <0>        -0.1766
     20 N3         -4.7978   -8.3308    1.4521 N.am      1 <0>        -0.6826
     21 C15        -4.4882   -9.0650    0.3651 C.2       1 <0>         0.7088
     22 O1         -4.3176   -8.5199   -0.7083 O.2       1 <0>        -0.5536
     23 N4         -4.3676  -10.4034    0.4679 N.am      1 <0>        -0.6758
     24 C16        -3.9415  -11.1553   -0.6351 C.ar      1 <0>         0.1613
     25 C17        -3.0319  -10.6150   -1.5342 C.ar      1 <0>        -0.1044
     26 C18        -2.6123  -11.3563   -2.6210 C.ar      1 <0>        -0.0920
     27 C19        -3.0999  -12.6406   -2.8148 C.ar      1 <0>         0.0838
     28 C20        -4.0092  -13.1809   -1.9170 C.ar      1 <0>        -0.0898
     29 C21        -4.4244  -12.4429   -0.8262 C.ar      1 <0>        -0.1275
     30 O2         -2.6868  -13.3700   -3.8854 O.3       1 <0>        -0.2419
     31 C22        -1.4475  -13.9171   -3.8425 C.ar      1 <0>         0.3843
     32 C23        -0.9333  -14.5842   -4.9476 C.ar      1 <0>        -0.3092
     33 C24         0.3448  -15.1285   -4.8538 C.ar      1 <0>         0.4598
     34 N5          1.0234  -14.9910   -3.7165 N.ar      1 <0>        -0.5925
     35 C25         0.5000  -14.3508   -2.6911 C.ar      1 <0>         0.3761
     36 N6         -0.7041  -13.8182   -2.7438 N.ar      1 <0>        -0.6017
     37 N7          0.9023  -15.8038   -5.9283 N.pl3     1 <0>        -0.7108
     38 C26         0.1458  -15.9492   -7.1744 C.3       1 <0>         0.0880
     39 H1         -0.8926    2.2922   -1.7278 H         1 <0>         0.1065
     40 H2         -2.5838    2.0514   -2.2280 H         1 <0>         0.0795
     41 H3         -2.1748    2.1673   -0.4995 H         1 <0>         0.0804
     42 H4         -1.2980   -0.0626   -2.3904 H         1 <0>         0.1302
     43 H5         -0.8890    0.0533   -0.6620 H         1 <0>         0.1299
     44 H6         -2.5411   -0.2873    0.9940 H         1 <0>         0.1386
     45 H7         -3.4119    1.1189    0.3362 H         1 <0>         0.1368
     46 H8         -4.9259   -0.3484    1.6526 H         1 <0>         0.1238
     47 H9         -5.4058   -0.2930   -0.0610 H         1 <0>         0.0621
     48 H10        -3.9521   -3.5727   -0.8311 H         1 <0>         0.1246
     49 H11        -4.8335   -2.1879   -1.5207 H         1 <0>         0.0622
     50 H12        -2.4395   -2.1006   -2.1439 H         1 <0>         0.1352
     51 H13        -1.9856   -2.1267   -0.4230 H         1 <0>         0.1378
     52 H14        -6.0916   -2.3617    1.8908 H         1 <0>         0.1056
     53 H15        -6.5010   -2.5896    0.1736 H         1 <0>         0.0665
     54 H16        -6.2972   -4.7056   -0.8506 H         1 <0>         0.1368
     55 H17        -5.8888   -7.1226   -0.6327 H         1 <0>         0.1503
     56 H18        -4.2257   -6.4819    3.2544 H         1 <0>         0.1458
     57 H19        -4.8592   -8.7548    2.3223 H         1 <0>         0.4154
     58 H20        -4.5758  -10.8463    1.3054 H         1 <0>         0.4130
     59 H21        -2.6528   -9.6149   -1.3838 H         1 <0>         0.1404
     60 H22        -1.9048  -10.9362   -3.3205 H         1 <0>         0.1293
     61 H23        -4.3889  -14.1804   -2.0687 H         1 <0>         0.1369
     62 H24        -5.1283  -12.8655   -0.1245 H         1 <0>         0.1361
     63 H25        -1.5103  -14.6785   -5.8557 H         1 <0>         0.1488
     64 H26         1.0758  -14.2566   -1.7822 H         1 <0>         0.2008
     65 H27         1.7933  -16.1802   -5.8551 H         1 <0>         0.4136
     66 H28         0.7419  -16.5046   -7.8986 H         1 <0>         0.0865
     67 H29        -0.7804  -16.4886   -6.9763 H         1 <0>         0.0628
     68 H30        -0.0868  -14.9627   -7.5754 H         1 <0>         0.0620
     69 H31        -3.6209   -0.0666   -1.7269 H         1 <0>         0.4195
@<TRIPOS>BOND
     1    1    2 1
     2    1   39 1
     3    1   40 1
     4    1   41 1
     5    2    3 1
     6    2   42 1
     7    2   43 1
     8    3    8 1
     9    3    4 1
    10    3   69 1
    11    4    5 1
    12    4   44 1
    13    4   45 1
    14    5    6 1
    15    5   46 1
    16    5   47 1
    17    6    7 1
    18    6    9 1
    19    7    8 1
    20    7   48 1
    21    7   49 1
    22    8   50 1
    23    8   51 1
    24    9   10 1
    25    9   52 1
    26    9   53 1
    27   10   15 ar
    28   10   11 ar
    29   11   12 ar
    30   11   54 1
    31   12   13 ar
    32   12   55 1
    33   13   14 ar
    34   13   20 1
    35   14   15 ar
    36   14   56 1
    37   15   16 1
    38   16   17 1
    39   16   18 1
    40   16   19 1
    41   20   21 am
    42   20   57 1
    43   21   22 2
    44   21   23 am
    45   23   24 1
    46   23   58 1
    47   24   29 ar
    48   24   25 ar
    49   25   26 ar
    50   25   59 1
    51   26   27 ar
    52   26   60 1
    53   27   28 ar
    54   27   30 1
    55   28   29 ar
    56   28   61 1
    57   29   62 1
    58   30   31 1
    59   31   36 ar
    60   31   32 ar
    61   32   33 ar
    62   32   63 1
    63   33   34 ar
    64   33   37 1
    65   34   35 ar
    66   35   36 ar
    67   35   64 1
    68   37   38 1
    69   37   65 1
    70   38   66 1
    71   38   67 1
    72   38   68 1
@<TRIPOS>MOLECULE
CHEMBL574738__1
   69    72     0     0     0
SMALL
USER_CHARGES

@<TRIPOS>ATOM
      1 C1          0.0759    1.5438    0.6037 C.3       1 <0>        -0.1550
      2 C2          0.0819    0.0240    0.4269 C.3       1 <0>         0.0497
      3 N1         -1.3011   -0.4668    0.3613 N.3       1 <0>        -0.5383
      4 C3         -1.9905   -0.2720    1.6446 C.3       1 <0>         0.0216
      5 C4         -3.4418   -0.7401    1.5167 C.3       1 <0>        -0.0034
      6 N2         -3.4673   -2.1590    1.1380 N.4       1 <0>        -0.3925
      7 C5         -2.7968   -2.3340   -0.1571 C.3       1 <0>        -0.0069
      8 C6         -1.3401   -1.8792   -0.0432 C.3       1 <0>         0.0266
      9 C7         -4.8606   -2.6126    1.0329 C.3       1 <0>         0.0216
     10 C8         -4.8877   -4.0989    0.7859 C.ar      1 <0>        -0.1314
     11 C9         -5.0212   -4.5819   -0.5031 C.ar      1 <0>        -0.0646
     12 C10        -5.0460   -5.9433   -0.7329 C.ar      1 <0>        -0.0851
     13 C11        -4.9367   -6.8279    0.3323 C.ar      1 <0>         0.2104
     14 C12        -4.8028   -6.3399    1.6253 C.ar      1 <0>        -0.0958
     15 C13        -4.7734   -4.9769    1.8479 C.ar      1 <0>        -0.1409
     16 C14        -4.6219   -4.4463    3.2502 C.3       1 <0>         0.5070
     17 F1         -4.6433   -5.5117    4.1567 F         1 <0>        -0.1547
     18 F2         -3.4060   -3.7635    3.3616 F         1 <0>        -0.1851
     19 F3         -5.6759   -3.5713    3.5341 F         1 <0>        -0.1640
     20 N3         -4.9619   -8.2081    0.1029 N.am      1 <0>        -0.6837
     21 C15        -4.4196   -8.7143   -1.0223 C.2       1 <0>         0.7086
     22 O1         -3.8266   -7.9843   -1.7931 O.2       1 <0>        -0.5502
     23 N4         -4.5345  -10.0295   -1.2932 N.am      1 <0>        -0.6719
     24 C16        -3.8805  -10.5754   -2.4057 C.ar      1 <0>         0.1552
     25 C17        -2.6449  -10.0782   -2.7980 C.ar      1 <0>        -0.1020
     26 C18        -2.0009  -10.6166   -3.8944 C.ar      1 <0>        -0.0924
     27 C19        -2.5883  -11.6538   -4.6042 C.ar      1 <0>         0.0887
     28 C20        -3.8231  -12.1507   -4.2129 C.ar      1 <0>        -0.0905
     29 C21        -4.4651  -11.6176   -3.1127 C.ar      1 <0>        -0.1241
     30 O2         -1.9539  -12.1832   -5.6840 O.3       1 <0>        -0.2421
     31 C22        -0.8993  -13.0053   -5.4625 C.ar      1 <0>         0.3838
     32 C23        -0.1485  -13.4903   -6.5263 C.ar      1 <0>        -0.3084
     33 C24         0.9254  -14.3313   -6.2467 C.ar      1 <0>         0.4604
     34 N5          1.1921  -14.6382   -4.9788 N.ar      1 <0>        -0.5919
     35 C25         0.4556  -14.1572   -3.9982 C.ar      1 <0>         0.3765
     36 N6         -0.5651  -13.3548   -4.2232 N.ar      1 <0>        -0.6028
     37 N7          1.7048  -14.8418   -7.2729 N.pl3     1 <0>        -0.7101
     38 C26         1.4012  -14.4974   -8.6641 C.3       1 <0>         0.0876
     39 H1          1.1021    1.9080    0.6524 H         1 <0>         0.0710
     40 H2         -0.4339    2.0059   -0.2417 H         1 <0>         0.0692
     41 H3         -0.4448    1.8002    1.5263 H         1 <0>         0.0560
     42 H4          0.6026   -0.2324   -0.4957 H         1 <0>         0.0890
     43 H5          0.5917   -0.4381    1.2723 H         1 <0>         0.0460
     44 H6         -1.4883   -0.8519    2.4189 H         1 <0>         0.0601
     45 H7         -1.9714    0.7847    1.9111 H         1 <0>         0.1280
     46 H8         -3.9511   -0.6097    2.4716 H         1 <0>         0.1352
     47 H9         -3.9476   -0.1508    0.7518 H         1 <0>         0.1417
     48 H10        -2.8278   -3.3853   -0.4432 H         1 <0>         0.1337
     49 H11        -3.3058   -1.7365   -0.9134 H         1 <0>         0.1410
     50 H12        -0.8464   -1.9950   -1.0080 H         1 <0>         0.1252
     51 H13        -0.8272   -2.4856    0.7034 H         1 <0>         0.0590
     52 H14        -5.3865   -2.3888    1.9611 H         1 <0>         0.1450
     53 H15        -5.3489   -2.0978    0.2055 H         1 <0>         0.1515
     54 H16        -5.1065   -3.8935   -1.3309 H         1 <0>         0.1522
     55 H17        -5.1506   -6.3199   -1.7397 H         1 <0>         0.1607
     56 H18        -4.7176   -7.0252    2.4556 H         1 <0>         0.1562
     57 H19        -5.3697   -8.8006    0.7538 H         1 <0>         0.4195
     58 H20        -5.0700  -10.5982   -0.7181 H         1 <0>         0.4141
     59 H21        -2.1878   -9.2703   -2.2459 H         1 <0>         0.1387
     60 H22        -1.0398  -10.2299   -4.1996 H         1 <0>         0.1305
     61 H23        -4.2803  -12.9577   -4.7663 H         1 <0>         0.1381
     62 H24        -5.4240  -12.0080   -2.8052 H         1 <0>         0.1366
     63 H25        -0.3919  -13.2222   -7.5438 H         1 <0>         0.1492
     64 H26         0.6976  -14.4252   -2.9804 H         1 <0>         0.2009
     65 H27         2.4512  -15.4270   -7.0699 H         1 <0>         0.4139
     66 H28         0.3926  -14.8302   -8.9090 H         1 <0>         0.0630
     67 H29         1.4691  -13.4173   -8.7942 H         1 <0>         0.0624
     68 H30         2.1162  -14.9885   -9.3243 H         1 <0>         0.0869
     69 H31        -2.9890   -2.7030    1.8403 H         1 <0>         0.4158
@<TRIPOS>BOND
     1    1    2 1
     2    1   39 1
     3    1   40 1
     4    1   41 1
     5    2    3 1
     6    2   42 1
     7    2   43 1
     8    3    8 1
     9    3    4 1
    10    4    5 1
    11    4   44 1
    12    4   45 1
    13    5    6 1
    14    5   46 1
    15    5   47 1
    16    6    7 1
    17    6    9 1
    18    6   69 1
    19    7    8 1
    20    7   48 1
    21    7   49 1
    22    8   50 1
    23    8   51 1
    24    9   10 1
    25    9   52 1
    26    9   53 1
    27   10   15 ar
    28   10   11 ar
    29   11   12 ar
    30   11   54 1
    31   12   13 ar
    32   12   55 1
    33   13   14 ar
    34   13   20 1
    35   14   15 ar
    36   14   56 1
    37   15   16 1
    38   16   17 1
    39   16   18 1
    40   16   19 1
    41   20   21 am
    42   20   57 1
    43   21   22 2
    44   21   23 am
    45   23   24 1
    46   23   58 1
    47   24   29 ar
    48   24   25 ar
    49   25   26 ar
    50   25   59 1
    51   26   27 ar
    52   26   60 1
    53   27   28 ar
    54   27   30 1
    55   28   29 ar
    56   28   61 1
    57   29   62 1
    58   30   31 1
    59   31   36 ar
    60   31   32 ar
    61   32   33 ar
    62   32   63 1
    63   33   34 ar
    64   33   37 1
    65   34   35 ar
    66   35   36 ar
    67   35   64 1
    68   37   38 1
    69   37   65 1
    70   38   66 1
    71   38   67 1
    72   38   68 1
@<TRIPOS>MOLECULE
CHEMBL572881
   51    54     0     0     0
SMALL
USER_CHARGES

@<TRIPOS>ATOM
      1 C1          0.7468    1.4716   -0.2962 C.3       1 <0>        -0.1359
      2 C2         -0.0126    0.2109    0.1219 C.3       1 <0>        -0.0259
      3 C3         -1.3841    0.5810    0.7097 C.3       1 <0>         0.1241
      4 N1         -1.3578    0.0858    2.0884 N.pl3     1 <0>        -0.7443
      5 C4         -0.1308   -0.5237    2.3558 C.ar      1 <0>         0.2168
      6 C5          0.7087   -0.4891    1.2521 C.ar      1 <0>        -0.1719
      7 C6          1.9737   -1.0422    1.3132 C.ar      1 <0>        -0.0383
      8 C7          2.4173   -1.6377    2.4780 C.ar      1 <0>        -0.1686
      9 C8          1.5867   -1.6793    3.5908 C.ar      1 <0>         0.1899
     10 C9          0.3188   -1.1248    3.5317 C.ar      1 <0>        -0.2101
     11 N2          2.0314   -2.2815    4.7721 N.am      1 <0>        -0.6658
     12 C10         3.3340   -2.2177    5.1121 C.2       1 <0>         0.5798
     13 O1          4.1056   -1.5583    4.4423 O.2       1 <0>        -0.5258
     14 C11         3.8233   -2.9473    6.2957 C.ar      1 <0>        -0.2731
     15 C12         2.9747   -3.8049    7.0055 C.ar      1 <0>         0.0067
     16 C13         3.4823   -4.4663    8.1093 C.ar      1 <0>        -0.2465
     17 C14         4.8007   -4.2646    8.4781 C.ar      1 <0>         0.1892
     18 N3          5.5844   -3.4525    7.7964 N.ar      1 <0>        -0.5474
     19 C15         5.1519   -2.7990    6.7289 C.ar      1 <0>         0.4589
     20 N4          6.0106   -1.9622    6.0402 N.pl3     1 <0>        -0.6963
     21 C16         7.3594   -1.7126    6.5545 C.3       1 <0>         0.1647
     22 C17         8.0854   -0.7738    5.6257 C.ar      1 <0>        -0.0637
     23 C18         8.8316   -1.2620    4.5640 C.ar      1 <0>        -0.1529
     24 C19         9.4839   -0.3708    3.7331 C.ar      1 <0>         0.0988
     25 N5          9.4026    0.9288    3.9414 N.ar      1 <0>        -0.4794
     26 C20         8.7024    1.4285    4.9408 C.ar      1 <0>         0.0990
     27 C21         8.0184    0.5989    5.8091 C.ar      1 <0>        -0.1529
     28 C22        -0.1773   -0.7323   -1.0715 C.3       1 <0>        -0.1351
     29 H1          1.7482    1.1988   -0.6294 H         1 <0>         0.0615
     30 H2          0.2143    1.9632   -1.1104 H         1 <0>         0.0602
     31 H3          0.8190    2.1508    0.5532 H         1 <0>         0.0571
     32 H4         -1.5207    1.6624    0.6988 H         1 <0>         0.0684
     33 H5         -2.1804    0.0929    0.1478 H         1 <0>         0.0687
     34 H6         -2.0866    0.1697    2.7230 H         1 <0>         0.4116
     35 H7          2.6177   -1.0092    0.4468 H         1 <0>         0.1223
     36 H8          3.4061   -2.0696    2.5233 H         1 <0>         0.1332
     37 H9         -0.3243   -1.1585    4.3988 H         1 <0>         0.1199
     38 H10         1.4023   -2.7451    5.3467 H         1 <0>         0.4099
     39 H11         1.9488   -3.9465    6.6991 H         1 <0>         0.1351
     40 H12         2.8542   -5.1349    8.6793 H         1 <0>         0.1402
     41 H13         5.1949   -4.7817    9.3404 H         1 <0>         0.1633
     42 H14         5.7198   -1.5404    5.2165 H         1 <0>         0.4273
     43 H15         7.2931   -1.2639    7.5456 H         1 <0>         0.0786
     44 H16         7.9042   -2.6545    6.6178 H         1 <0>         0.0816
     45 H17         8.9026   -2.3254    4.3887 H         1 <0>         0.1365
     46 H18        10.0672   -0.7431    2.9039 H         1 <0>         0.1584
     47 H19         8.6595    2.4986    5.0799 H         1 <0>         0.1581
     48 H20         7.4425    1.0143    6.6228 H         1 <0>         0.1358
     49 H21         0.8053   -1.0276   -1.4395 H         1 <0>         0.0614
     50 H22        -0.7302   -1.6186   -0.7605 H         1 <0>         0.0571
     51 H23        -0.7242   -0.2225   -1.8647 H         1 <0>         0.0600
@<TRIPOS>BOND
     1    1    2 1
     2    1   29 1
     3    1   30 1
     4    1   31 1
     5    2    6 1
     6    2    3 1
     7    2   28 1
     8    3    4 1
     9    3   32 1
    10    3   33 1
    11    4    5 1
    12    4   34 1
    13    5   10 ar
    14    5    6 ar
    15    6    7 ar
    16    7    8 ar
    17    7   35 1
    18    8    9 ar
    19    8   36 1
    20    9   10 ar
    21    9   11 1
    22   10   37 1
    23   11   12 am
    24   11   38 1
    25   12   13 2
    26   12   14 1
    27   14   19 ar
    28   14   15 ar
    29   15   16 ar
    30   15   39 1
    31   16   17 ar
    32   16   40 1
    33   17   18 ar
    34   17   41 1
    35   18   19 ar
    36   19   20 1
    37   20   21 1
    38   20   42 1
    39   21   22 1
    40   21   43 1
    41   21   44 1
    42   22   27 ar
    43   22   23 ar
    44   23   24 ar
    45   23   45 1
    46   24   25 ar
    47   24   46 1
    48   25   26 ar
    49   26   27 ar
    50   26   47 1
    51   27   48 1
    52   28   49 1
    53   28   50 1
    54   28   51 1
@<TRIPOS>MOLECULE
CHEMBL523802
   55    58     0     0     0
SMALL
USER_CHARGES

@<TRIPOS>ATOM
      1 C1         -1.2991    2.1679    0.2857 C.3       1 <0>        -0.1539
      2 C2         -1.0543    0.6581    0.2471 C.3       1 <0>        -0.1201
      3 C3         -2.3965   -0.0755    0.2135 C.3       1 <0>        -0.1345
      4 C4         -2.1517   -1.5853    0.1749 C.3       1 <0>         0.1312
      5 N1         -3.4370   -2.2877    0.1427 N.pl3     1 <0>        -0.6825
      6 C5         -3.4688   -3.6669    0.1048 C.ar      1 <0>         0.6150
      7 N2         -2.3190   -4.3327    0.1039 N.ar      1 <0>        -0.5768
      8 C6         -2.2967   -5.6536    0.0690 C.ar      1 <0>         0.2885
      9 C7         -3.5126   -6.3383    0.0328 C.ar      1 <0>        -0.3458
     10 C8         -3.5799   -7.8063   -0.0069 C.2       1 <0>         0.4568
     11 O1         -2.5708   -8.4897   -0.0099 O.2       1 <0>        -0.4874
     12 C9         -4.9216   -8.4149   -0.0425 C.2       1 <0>        -0.3174
     13 C10        -6.0265   -7.5917   -0.0369 C.2       1 <0>         0.2609
     14 N3         -5.9233   -6.2517   -0.0005 N.pl3     1 <0>        -0.4237
     15 C11        -4.7144   -5.6022    0.0348 C.ar      1 <0>         0.4669
     16 N4         -4.6440   -4.2761    0.0763 N.ar      1 <0>        -0.5932
     17 C12        -7.0965   -5.4876    0.0017 C.ar      1 <0>         0.0944
     18 C13        -7.9631   -5.5447    1.0856 C.ar      1 <0>        -0.1009
     19 C14        -9.1178   -4.7896    1.0824 C.ar      1 <0>        -0.0946
     20 C15        -9.4175   -3.9746    0.0024 C.ar      1 <0>        -0.0762
     21 C16        -8.5567   -3.9158   -1.0782 C.ar      1 <0>        -0.0863
     22 C17        -7.3943   -4.6667   -1.0764 C.ar      1 <0>        -0.0661
     23 C18        -9.1053   -2.9620   -2.1179 C.3       1 <0>        -0.0827
     24 C19       -10.5947   -2.7824   -1.7555 C.3       1 <0>        -0.1212
     25 C20       -10.6028   -3.0640   -0.2380 C.3       1 <0>        -0.0866
     26 C21        -5.0786   -9.8773   -0.0838 C.2       1 <0>         0.5986
     27 O2         -6.1870  -10.3724   -0.0058 O.2       1 <0>        -0.5370
     28 N5         -3.9945  -10.6683   -0.2081 N.am      1 <0>        -0.5870
     29 O3         -4.1522  -12.0676   -0.3565 O.3       1 <0>        -0.1490
     30 C22        -2.9204  -12.7818   -0.4775 C.3       1 <0>         0.0010
     31 H1         -0.3429    2.6905    0.3097 H         1 <0>         0.0578
     32 H2         -1.8553    2.4686   -0.6022 H         1 <0>         0.0548
     33 H3         -1.8735    2.4202    1.1770 H         1 <0>         0.0548
     34 H4         -0.4799    0.4058   -0.6442 H         1 <0>         0.0667
     35 H5         -0.4981    0.3574    1.1350 H         1 <0>         0.0667
     36 H6         -2.9709    0.1768    1.1048 H         1 <0>         0.0705
     37 H7         -2.9528    0.2252   -0.6744 H         1 <0>         0.0704
     38 H8         -1.5773   -1.8376   -0.7165 H         1 <0>         0.0742
     39 H9         -1.5955   -1.8860    1.0628 H         1 <0>         0.0742
     40 H10        -4.2656   -1.7834    0.1479 H         1 <0>         0.4171
     41 H11        -1.3597   -6.1907    0.0680 H         1 <0>         0.1910
     42 H12        -7.0094   -8.0384   -0.0630 H         1 <0>         0.1910
     43 H13        -7.7338   -6.1791    1.9290 H         1 <0>         0.1339
     44 H14        -9.7914   -4.8341    1.9253 H         1 <0>         0.1333
     45 H15        -6.7198   -4.6173   -1.9184 H         1 <0>         0.1240
     46 H16        -8.5853   -2.0054   -2.0654 H         1 <0>         0.0837
     47 H17        -9.0078   -3.3921   -3.1147 H         1 <0>         0.0781
     48 H18       -10.9238   -1.7641   -1.9623 H         1 <0>         0.0805
     49 H19       -11.2128   -3.5060   -2.2870 H         1 <0>         0.0756
     50 H20       -11.5280   -3.5637    0.0490 H         1 <0>         0.0807
     51 H21       -10.4851   -2.1348    0.3197 H         1 <0>         0.0854
     52 H22        -3.1061  -10.2789   -0.1960 H         1 <0>         0.4201
     53 H23        -3.1269  -13.8464   -0.5874 H         1 <0>         0.1125
     54 H24        -2.3778  -12.4247   -1.3528 H         1 <0>         0.0562
     55 H25        -2.3169  -12.6191    0.4154 H         1 <0>         0.0566
@<TRIPOS>BOND
     1    1    2 1
     2    1   31 1
     3    1   32 1
     4    1   33 1
     5    2    3 1
     6    2   34 1
     7    2   35 1
     8    3    4 1
     9    3   36 1
    10    3   37 1
    11    4    5 1
    12    4   38 1
    13    4   39 1
    14    5    6 1
    15    5   40 1
    16    6   16 ar
    17    6    7 ar
    18    7    8 ar
    19    8    9 ar
    20    8   41 1
    21    9   15 ar
    22    9   10 1
    23   10   11 2
    24   10   12 1
    25   12   13 2
    26   12   26 1
    27   13   14 1
    28   13   42 1
    29   14   15 1
    30   14   17 1
    31   15   16 ar
    32   17   22 ar
    33   17   18 ar
    34   18   19 ar
    35   18   43 1
    36   19   20 ar
    37   19   44 1
    38   20   25 1
    39   20   21 ar
    40   21   22 ar
    41   21   23 1
    42   22   45 1
    43   23   24 1
    44   23   46 1
    45   23   47 1
    46   24   25 1
    47   24   48 1
    48   24   49 1
    49   25   50 1
    50   25   51 1
    51   26   27 2
    52   26   28 am
    53   28   29 1
    54   28   52 1
    55   29   30 1
    56   30   53 1
    57   30   54 1
    58   30   55 1
@<TRIPOS>MOLECULE
CHEMBL491078
   56    60     0     0     0
SMALL
USER_CHARGES

@<TRIPOS>ATOM
      1 C1          1.0867   -0.7966    1.8412 C.3       1 <0>         0.0392
      2 O1          0.7239   -0.1450    0.6223 O.3       1 <0>        -0.3063
      3 C2          1.2241   -0.6657   -0.5275 C.ar      1 <0>         0.3101
      4 C3          0.9107   -0.0714   -1.7432 C.ar      1 <0>        -0.1680
      5 C4          1.4255   -0.6087   -2.9093 C.ar      1 <0>        -0.0295
      6 C5          2.2440   -1.7332   -2.8168 C.ar      1 <0>         0.0659
      7 C6          2.5130   -2.2719   -1.5676 C.ar      1 <0>         0.1247
      8 N1          2.0080   -1.7289   -0.4761 N.ar      1 <0>        -0.5201
      9 N2          2.7874   -2.3119   -3.9709 N.pl3     1 <0>        -0.6153
     10 C7          3.1336   -1.5160   -5.0449 C.ar      1 <0>         0.6128
     11 N3          3.0420   -0.1965   -4.9182 N.ar      1 <0>        -0.5711
     12 C8          3.3616    0.6076   -5.9169 C.ar      1 <0>         0.2868
     13 C9          3.7999    0.0389   -7.1141 C.ar      1 <0>        -0.3363
     14 C10         4.1761    0.8587   -8.2749 C.2       1 <0>         0.4555
     15 O2          4.1205    2.0756   -8.2393 O.2       1 <0>        -0.4825
     16 C11         4.6240    0.1438   -9.4833 C.2       1 <0>        -0.3145
     17 C12         4.6668   -1.2332   -9.4649 C.2       1 <0>         0.2594
     18 N4          4.3142   -1.9482   -8.3822 N.pl3     1 <0>        -0.4211
     19 C13         3.8858   -1.3642   -7.2160 C.ar      1 <0>         0.4666
     20 N5          3.5493   -2.0968   -6.1600 N.ar      1 <0>        -0.5840
     21 C14         4.3863   -3.3448   -8.4469 C.ar      1 <0>         0.0919
     22 C15         5.6052   -3.9696   -8.6772 C.ar      1 <0>        -0.1033
     23 C16         5.6706   -5.3463   -8.7395 C.ar      1 <0>        -0.0936
     24 C17         4.5256   -6.1090   -8.5739 C.ar      1 <0>        -0.0761
     25 C18         3.3105   -5.4899   -8.3446 C.ar      1 <0>        -0.0852
     26 C19         3.2414   -4.1095   -8.2756 C.ar      1 <0>        -0.0649
     27 C20         2.2238   -6.5337   -8.1997 C.3       1 <0>        -0.0829
     28 C21         2.8219   -7.8252   -8.7967 C.3       1 <0>        -0.1213
     29 C22         4.3374   -7.6110   -8.5983 C.3       1 <0>        -0.0869
     30 C23         5.0183    0.8883  -10.6897 C.2       1 <0>         0.5983
     31 O3          5.2847    0.2891  -11.7142 O.2       1 <0>        -0.5352
     32 N6          5.0844    2.2341  -10.6595 N.am      1 <0>        -0.5862
     33 O4          5.3485    2.9568  -11.8482 O.3       1 <0>        -0.1479
     34 C24         5.3903    4.3740  -11.6696 C.3       1 <0>         0.0007
     35 H1          0.7455   -1.8315    1.8156 H         1 <0>         0.0595
     36 H2          2.1703   -0.7741    1.9567 H         1 <0>         0.0595
     37 H3          0.6210   -0.2812    2.6813 H         1 <0>         0.0977
     38 H4          0.2727    0.7993   -1.7777 H         1 <0>         0.1480
     39 H5          1.1983   -0.1677   -3.8686 H         1 <0>         0.1531
     40 H6          3.1459   -3.1433   -1.4869 H         1 <0>         0.1618
     41 H7          2.9204   -3.2717   -4.0156 H         1 <0>         0.4290
     42 H8          3.2853    1.6795   -5.8095 H         1 <0>         0.1947
     43 H9          4.9948   -1.7564  -10.3509 H         1 <0>         0.1925
     44 H10         6.5000   -3.3789   -8.8076 H         1 <0>         0.1344
     45 H11         6.6185   -5.8318   -8.9185 H         1 <0>         0.1339
     46 H12         2.2932   -3.6262   -8.0920 H         1 <0>         0.1246
     47 H13         1.9790   -6.6814   -7.1479 H         1 <0>         0.0842
     48 H14         1.3359   -6.2353   -8.7572 H         1 <0>         0.0782
     49 H15         2.4791   -8.7014   -8.2464 H         1 <0>         0.0808
     50 H16         2.5782   -7.9116   -9.8556 H         1 <0>         0.0756
     51 H17         4.8930   -8.0483   -9.4279 H         1 <0>         0.0809
     52 H18         4.6607   -8.0481   -7.6535 H         1 <0>         0.0858
     53 H19         4.9510    2.7076   -9.8235 H         1 <0>         0.4196
     54 H20         5.5974    4.8547  -12.6257 H         1 <0>         0.1129
     55 H21         4.4295    4.7207  -11.2892 H         1 <0>         0.0573
     56 H22         6.1758    4.6275  -10.9578 H         1 <0>         0.0562
@<TRIPOS>BOND
     1    1    2 1
     2    1   35 1
     3    1   36 1
     4    1   37 1
     5    2    3 1
     6    3    8 ar
     7    3    4 ar
     8    4    5 ar
     9    4   38 1
    10    5    6 ar
    11    5   39 1
    12    6    7 ar
    13    6    9 1
    14    7    8 ar
    15    7   40 1
    16    9   10 1
    17    9   41 1
    18   10   20 ar
    19   10   11 ar
    20   11   12 ar
    21   12   13 ar
    22   12   42 1
    23   13   19 ar
    24   13   14 1
    25   14   15 2
    26   14   16 1
    27   16   17 2
    28   16   30 1
    29   17   18 1
    30   17   43 1
    31   18   19 1
    32   18   21 1
    33   19   20 ar
    34   21   26 ar
    35   21   22 ar
    36   22   23 ar
    37   22   44 1
    38   23   24 ar
    39   23   45 1
    40   24   29 1
    41   24   25 ar
    42   25   26 ar
    43   25   27 1
    44   26   46 1
    45   27   28 1
    46   27   47 1
    47   27   48 1
    48   28   29 1
    49   28   49 1
    50   28   50 1
    51   29   51 1
    52   29   52 1
    53   30   31 2
    54   30   32 am
    55   32   33 1
    56   32   53 1
    57   33   34 1
    58   34   54 1
    59   34   55 1
    60   34   56 1
@<TRIPOS>MOLECULE
CHEMBL254496
   55    58     0     0     0
SMALL
USER_CHARGES

@<TRIPOS>ATOM
      1 C1          0.0259    1.3090   -0.1615 C.3       1 <0>        -0.1483
      2 C2         -0.0000   -0.2196   -0.0997 C.3       1 <0>        -0.0879
      3 C3         -1.4510   -0.7031   -0.0460 C.3       1 <0>        -0.1329
      4 C4         -1.4740   -2.2346   -0.0192 C.3       1 <0>         0.1461
      5 N1         -0.6410   -2.7006    1.0978 N.pl3     1 <0>        -0.6781
      6 C5          0.7454   -2.2233    1.1922 C.3       1 <0>         0.1411
      7 C6          0.7435   -0.6919    1.1518 C.3       1 <0>        -0.1324
      8 C7         -1.1581   -3.5814    2.0534 C.ar      1 <0>         0.1998
      9 C8         -1.0443   -4.9509    1.8693 C.ar      1 <0>        -0.1856
     10 C9         -1.5580   -5.8226    2.8197 C.ar      1 <0>         0.2166
     11 C10        -2.1856   -5.3236    3.9542 C.ar      1 <0>        -0.1839
     12 C11        -2.3006   -3.9592    4.1397 C.ar      1 <0>        -0.0736
     13 C12        -1.7841   -3.0837    3.1963 C.ar      1 <0>         0.0716
     14 N2         -1.8959   -1.6989    3.3886 N.am      1 <0>        -0.6413
     15 C13        -2.8919   -1.2024    4.1487 C.2       1 <0>         0.5975
     16 O1         -3.6510   -1.9579    4.7264 O.2       1 <0>        -0.4945
     17 C14        -3.0611    0.2518    4.2801 C.2       1 <0>        -0.0371
     18 C15        -4.0228    0.8792    5.0212 C.2       1 <0>        -0.1171
     19 C16        -3.8235    2.2558    4.8692 C.2       1 <0>        -0.1275
     20 C17        -2.7390    2.4114    4.0344 C.2       1 <0>         0.0728
     21 O2         -2.2910    1.1887    3.6949 O.3       1 <0>        -0.1450
     22 C18        -2.1813    3.6588    3.6058 C.1       1 <0>         0.2809
     23 N3         -1.7390    4.6484    3.2659 N.1       1 <0>        -0.3569
     24 N4         -1.4441   -7.2043    2.6347 N.pl3     1 <0>        -0.6324
     25 C19        -1.8805   -8.1466    3.6773 C.3       1 <0>         0.0864
     26 C20        -2.7997   -9.1900    3.0319 C.3       1 <0>         0.0451
     27 O3         -2.1423   -9.7587    1.8969 O.3       1 <0>        -0.3793
     28 C21        -1.8526   -8.8208    0.8575 C.3       1 <0>         0.0458
     29 C22        -0.8902   -7.7587    1.3892 C.3       1 <0>         0.0878
     30 H1          1.0593    1.6535   -0.2009 H         1 <0>         0.0549
     31 H2         -0.5036    1.6456   -1.0527 H         1 <0>         0.0549
     32 H3         -0.4594    1.7167    0.7253 H         1 <0>         0.0509
     33 H4          0.4858   -0.6271   -0.9863 H         1 <0>         0.0719
     34 H5         -1.9304   -0.3163    0.8532 H         1 <0>         0.0602
     35 H6         -1.9861   -0.3466   -0.9262 H         1 <0>         0.0698
     36 H7         -2.4978   -2.5823    0.1187 H         1 <0>         0.0685
     37 H8         -1.0774   -2.6225   -0.9574 H         1 <0>         0.0526
     38 H9          1.1860   -2.5636    2.1293 H         1 <0>         0.0700
     39 H10         1.3230   -2.6103    0.3527 H         1 <0>         0.0547
     40 H11         1.7704   -0.3275    1.1241 H         1 <0>         0.0724
     41 H12         0.2435   -0.3052    2.0397 H         1 <0>         0.0566
     42 H13        -0.5567   -5.3391    0.9872 H         1 <0>         0.1276
     43 H14        -2.5846   -6.0034    4.6924 H         1 <0>         0.1273
     44 H15        -2.7893   -3.5742    5.0225 H         1 <0>         0.1547
     45 H16        -1.2564   -1.0986    2.9744 H         1 <0>         0.4138
     46 H17        -4.7912    0.4027    5.6119 H         1 <0>         0.1774
     47 H18        -4.4078    3.0446    5.3196 H         1 <0>         0.1757
     48 H19        -1.0118   -8.6413    4.1118 H         1 <0>         0.0713
     49 H20        -2.4241   -7.6088    4.4540 H         1 <0>         0.0942
     50 H21        -3.0231   -9.9749    3.7544 H         1 <0>         0.1053
     51 H22        -3.7264   -8.7120    2.7143 H         1 <0>         0.0563
     52 H23        -1.3947   -9.3402    0.0157 H         1 <0>         0.1048
     53 H24        -2.7759   -8.3415    0.5320 H         1 <0>         0.0552
     54 H25        -0.7782   -6.9640    0.6516 H         1 <0>         0.0914
     55 H26         0.0799   -8.2136    1.5895 H         1 <0>         0.0699
@<TRIPOS>BOND
     1    1    2 1
     2    1   30 1
     3    1   31 1
     4    1   32 1
     5    2    7 1
     6    2    3 1
     7    2   33 1
     8    3    4 1
     9    3   34 1
    10    3   35 1
    11    4    5 1
    12    4   36 1
    13    4   37 1
    14    5    6 1
    15    5    8 1
    16    6    7 1
    17    6   38 1
    18    6   39 1
    19    7   40 1
    20    7   41 1
    21    8   13 ar
    22    8    9 ar
    23    9   10 ar
    24    9   42 1
    25   10   11 ar
    26   10   24 1
    27   11   12 ar
    28   11   43 1
    29   12   13 ar
    30   12   44 1
    31   13   14 1
    32   14   15 am
    33   14   45 1
    34   15   16 2
    35   15   17 1
    36   17   21 1
    37   17   18 2
    38   18   19 1
    39   18   46 1
    40   19   20 2
    41   19   47 1
    42   20   21 1
    43   20   22 1
    44   22   23 3
    45   24   29 1
    46   24   25 1
    47   25   26 1
    48   25   48 1
    49   25   49 1
    50   26   27 1
    51   26   50 1
    52   26   51 1
    53   27   28 1
    54   28   29 1
    55   28   52 1
    56   28   53 1
    57   29   54 1
    58   29   55 1
@<TRIPOS>MOLECULE
CHEMBL398237
   63    66     0     0     0
SMALL
USER_CHARGES

@<TRIPOS>ATOM
      1 C1          0.0354    1.2937   -0.1693 C.3       1 <0>        -0.1482
      2 C2          0.0047   -0.2346   -0.1035 C.3       1 <0>        -0.0878
      3 C3         -1.4478   -0.7134   -0.0487 C.3       1 <0>        -0.1328
      4 C4         -1.4756   -2.2448   -0.0178 C.3       1 <0>         0.1462
      5 N1         -0.6441   -2.7104    1.1004 N.pl3     1 <0>        -0.6779
      6 C5          0.7438   -2.2373    1.1936 C.3       1 <0>         0.1416
      7 C6          0.7467   -0.7060    1.1492 C.3       1 <0>        -0.1324
      8 C7         -1.1640   -3.5872    2.0583 C.ar      1 <0>         0.2000
      9 C8         -1.0544   -4.9574    1.8777 C.ar      1 <0>        -0.1876
     10 C9         -1.5710   -5.8250    2.8304 C.ar      1 <0>         0.2190
     11 C10        -2.1970   -5.3211    3.9636 C.ar      1 <0>        -0.1854
     12 C11        -2.3077   -3.9559    4.1455 C.ar      1 <0>        -0.0733
     13 C12        -1.7885   -3.0845    3.1998 C.ar      1 <0>         0.0684
     14 N2         -1.8959   -1.6989    3.3885 N.am      1 <0>        -0.6409
     15 C13        -2.8904   -1.1972    4.1473 C.2       1 <0>         0.5968
     16 O1         -3.6520   -1.9488    4.7267 O.2       1 <0>        -0.4944
     17 C14        -3.0550    0.2579    4.2749 C.2       1 <0>        -0.0362
     18 C15        -4.0147    0.8901    5.0143 C.2       1 <0>        -0.1179
     19 C16        -3.8110    2.2658    4.8590 C.2       1 <0>        -0.1274
     20 C17        -2.7258    2.4157    4.0239 C.2       1 <0>         0.0719
     21 O2         -2.2817    1.1908    3.6876 O.3       1 <0>        -0.1449
     22 C18        -2.1641    3.6603    3.5923 C.1       1 <0>         0.2812
     23 N3         -1.7185    4.6476    3.2500 N.1       1 <0>        -0.3576
     24 N4         -1.4614   -7.2076    2.6490 N.pl3     1 <0>        -0.6290
     25 C19        -0.9041   -7.7641    1.4069 C.3       1 <0>         0.1275
     26 C20         0.1935   -8.7688    1.7732 C.3       1 <0>         0.0406
     27 N5         -0.3488   -9.7617    2.7102 N.3       1 <0>        -0.5268
     28 C21        -0.7638   -9.1331    3.9714 C.3       1 <0>         0.0364
     29 C22        -1.8949   -8.1432    3.6977 C.3       1 <0>         0.1279
     30 C23         0.6187  -10.8401    2.9528 C.3       1 <0>         0.0540
     31 C24        -0.0620  -11.9717    3.7255 C.3       1 <0>         0.0792
     32 O3         -1.0832  -12.5555    2.9141 O.3       1 <0>        -0.5591
     33 H1          1.0698    1.6349   -0.2096 H         1 <0>         0.0546
     34 H2         -0.4930    1.6297   -1.0615 H         1 <0>         0.0548
     35 H3         -0.4487    1.7053    0.7163 H         1 <0>         0.0509
     36 H4          0.4892   -0.6459   -0.9890 H         1 <0>         0.0717
     37 H5         -1.9260   -0.3227    0.8496 H         1 <0>         0.0602
     38 H6         -1.9818   -0.3575   -0.9298 H         1 <0>         0.0696
     39 H7         -2.5005   -2.5889    0.1209 H         1 <0>         0.0690
     40 H8         -1.0802   -2.6364   -0.9551 H         1 <0>         0.0524
     41 H9          1.1833   -2.5765    2.1316 H         1 <0>         0.0693
     42 H10         1.3202   -2.6283    0.3551 H         1 <0>         0.0541
     43 H11         1.7747   -0.3448    1.1206 H         1 <0>         0.0718
     44 H12         0.2479   -0.3154    2.0361 H         1 <0>         0.0566
     45 H13        -0.5681   -5.3494    0.9967 H         1 <0>         0.1276
     46 H14        -2.5982   -5.9978    4.7036 H         1 <0>         0.1266
     47 H15        -2.7952   -3.5671    5.0273 H         1 <0>         0.1535
     48 H16        -1.2545   -1.1016    2.9729 H         1 <0>         0.4133
     49 H17        -4.7847    0.4177    5.6061 H         1 <0>         0.1773
     50 H18        -4.3928    3.0576    5.3073 H         1 <0>         0.1756
     51 H19        -1.6908   -8.2694    0.8467 H         1 <0>         0.0706
     52 H20        -0.4793   -6.9614    0.8042 H         1 <0>         0.0856
     53 H21         0.5416   -9.2721    0.8712 H         1 <0>         0.0851
     54 H22         1.0259   -8.2435    2.2413 H         1 <0>         0.0369
     55 H23        -1.1099   -9.9006    4.6637 H         1 <0>         0.0861
     56 H24         0.0820   -8.6027    4.4090 H         1 <0>         0.0366
     57 H25        -2.1249   -7.5910    4.6089 H         1 <0>         0.0865
     58 H26        -2.7788   -8.6856    3.3620 H         1 <0>         0.0704
     59 H27         0.9855  -11.2204    1.9995 H         1 <0>         0.0841
     60 H28         1.4548  -10.4538    3.5358 H         1 <0>         0.0477
     61 H29         0.6762  -12.7313    3.9828 H         1 <0>         0.0489
     62 H30        -0.5062  -11.5730    4.6375 H         1 <0>         0.0458
     63 H31        -1.5580  -13.2816    3.3413 H         1 <0>         0.3759
@<TRIPOS>BOND
     1    1    2 1
     2    1   33 1
     3    1   34 1
     4    1   35 1
     5    2    7 1
     6    2    3 1
     7    2   36 1
     8    3    4 1
     9    3   37 1
    10    3   38 1
    11    4    5 1
    12    4   39 1
    13    4   40 1
    14    5    6 1
    15    5    8 1
    16    6    7 1
    17    6   41 1
    18    6   42 1
    19    7   43 1
    20    7   44 1
    21    8   13 ar
    22    8    9 ar
    23    9   10 ar
    24    9   45 1
    25   10   11 ar
    26   10   24 1
    27   11   12 ar
    28   11   46 1
    29   12   13 ar
    30   12   47 1
    31   13   14 1
    32   14   15 am
    33   14   48 1
    34   15   16 2
    35   15   17 1
    36   17   21 1
    37   17   18 2
    38   18   19 1
    39   18   49 1
    40   19   20 2
    41   19   50 1
    42   20   21 1
    43   20   22 1
    44   22   23 3
    45   24   29 1
    46   24   25 1
    47   25   26 1
    48   25   51 1
    49   25   52 1
    50   26   27 1
    51   26   53 1
    52   26   54 1
    53   27   28 1
    54   27   30 1
    55   28   29 1
    56   28   55 1
    57   28   56 1
    58   29   57 1
    59   29   58 1
    60   30   31 1
    61   30   59 1
    62   30   60 1
    63   31   32 1
    64   31   61 1
    65   31   62 1
    66   32   63 1
@<TRIPOS>MOLECULE
CHEMBL398237__1
   64    67     0     0     0
SMALL
USER_CHARGES

@<TRIPOS>ATOM
      1 C1         -0.1477    1.7119    0.2327 C.3       1 <0>        -0.1538
      2 C2         -0.0633    0.1854    0.1738 C.3       1 <0>        -0.1040
      3 C3         -1.4760   -0.4046    0.1395 C.3       1 <0>        -0.1438
      4 C4         -1.3857   -1.9320    0.1610 C.3       1 <0>        -0.0049
      5 N1         -0.7012   -2.3681    1.3841 N.4       1 <0>        -0.3175
      6 C5          0.6778   -1.8653    1.3894 C.3       1 <0>        -0.0087
      7 C6          0.6668   -0.3354    1.4152 C.3       1 <0>        -0.1443
      8 C7         -0.6866   -3.7651    1.4354 C.ar      1 <0>        -0.0208
      9 C8         -0.1571   -4.4889    0.3855 C.ar      1 <0>        -0.1709
     10 C9         -0.1421   -5.8767    0.4367 C.ar      1 <0>         0.2402
     11 C10        -0.6600   -6.5364    1.5441 C.ar      1 <0>        -0.1328
     12 C11        -1.1893   -5.8127    2.5935 C.ar      1 <0>        -0.0552
     13 C12        -1.1994   -4.4245    2.5446 C.ar      1 <0>         0.1172
     14 N2         -1.7316   -3.6902    3.6116 N.am      1 <0>        -0.6767
     15 C13        -2.6536   -4.2488    4.4205 C.2       1 <0>         0.6175
     16 O1         -3.0980   -5.3524    4.1656 O.2       1 <0>        -0.4669
     17 C14        -3.1223   -3.5247    5.6107 C.2       1 <0>        -0.0656
     18 C15        -4.0450   -3.9807    6.5098 C.2       1 <0>        -0.0923
     19 C16        -4.1975   -2.9845    7.4806 C.2       1 <0>        -0.1280
     20 C17        -3.3539   -1.9539    7.1295 C.2       1 <0>         0.0961
     21 O2         -2.7102   -2.3035    6.0007 O.3       1 <0>        -0.1524
     22 C18        -3.1865   -0.7249    7.8452 C.1       1 <0>         0.2704
     23 N3         -3.0537    0.2500    8.4130 N.1       1 <0>        -0.3396
     24 N4          0.3939   -6.6101   -0.6271 N.pl3     1 <0>        -0.6143
     25 C19         0.3124   -8.0785   -0.6485 C.3       1 <0>         0.1198
     26 C20        -0.2692   -8.5141   -1.9977 C.3       1 <0>         0.0383
     27 N5          0.5225   -7.9201   -3.0832 N.3       1 <0>        -0.5267
     28 C21         0.4434   -6.4534   -3.0594 C.3       1 <0>         0.0342
     29 C22         1.0487   -5.9330   -1.7567 C.3       1 <0>         0.1233
     30 C23         0.1056   -8.4487   -4.3889 C.3       1 <0>         0.0537
     31 C24         1.1034   -8.0054   -5.4607 C.3       1 <0>         0.0788
     32 O3          2.3767   -8.6000   -5.2012 O.3       1 <0>        -0.5598
     33 H1          0.8583    2.1305    0.2641 H         1 <0>         0.0681
     34 H2         -0.6675    2.0814   -0.6513 H         1 <0>         0.0679
     35 H3         -0.6939    2.0114    1.1271 H         1 <0>         0.0620
     36 H4          0.4804   -0.1153   -0.7218 H         1 <0>         0.0902
     37 H5         -2.0353   -0.0608    1.0096 H         1 <0>         0.0882
     38 H6         -1.9829   -0.0828   -0.7702 H         1 <0>         0.1157
     39 H7         -2.3898   -2.3553    0.1365 H         1 <0>         0.1318
     40 H8         -0.8265   -2.2747   -0.7096 H         1 <0>         0.1303
     41 H9          1.1970   -2.2394    2.2717 H         1 <0>         0.1317
     42 H10         1.1930   -2.2095    0.4926 H         1 <0>         0.1319
     43 H11         1.6916    0.0360    1.4173 H         1 <0>         0.1163
     44 H12         0.1520    0.0099    2.3118 H         1 <0>         0.0881
     45 H13         0.2452   -3.9760   -0.4755 H         1 <0>         0.1461
     46 H14        -0.6487   -7.6156    1.5838 H         1 <0>         0.1499
     47 H15        -1.5922   -6.3256    3.4543 H         1 <0>         0.1682
     48 H16        -1.4366   -2.7796    3.7685 H         1 <0>         0.4069
     49 H17        -4.5594   -4.9297    6.4769 H         1 <0>         0.1816
     50 H18        -4.8512   -3.0174    8.3397 H         1 <0>         0.1816
     51 H19         1.3090   -8.5024   -0.5253 H         1 <0>         0.0846
     52 H20        -0.3365   -8.4210    0.1576 H         1 <0>         0.0914
     53 H21        -0.2345   -9.6008   -2.0749 H         1 <0>         0.0949
     54 H22        -1.3027   -8.1764   -2.0744 H         1 <0>         0.0403
     55 H23         0.9948   -6.0456   -3.9066 H         1 <0>         0.0922
     56 H24        -0.6001   -6.1444   -3.1213 H         1 <0>         0.0377
     57 H25         0.8864   -4.8577   -1.6829 H         1 <0>         0.0800
     58 H26         2.1174   -6.1467   -1.7421 H         1 <0>         0.0833
     59 H27         0.0766   -9.5375   -4.3476 H         1 <0>         0.0892
     60 H28        -0.8855   -8.0678   -4.6354 H         1 <0>         0.0507
     61 H29         0.7478   -8.3218   -6.4413 H         1 <0>         0.0529
     62 H30         1.1987   -6.9198   -5.4417 H         1 <0>         0.0436
     63 H31         3.0599   -8.3622   -5.8429 H         1 <0>         0.3791
     64 H32        -1.1921   -2.0091    2.1892 H         1 <0>         0.4134
@<TRIPOS>BOND
     1    1    2 1
     2    1   33 1
     3    1   34 1
     4    1   35 1
     5    2    7 1
     6    2    3 1
     7    2   36 1
     8    3    4 1
     9    3   37 1
    10    3   38 1
    11    4    5 1
    12    4   39 1
    13    4   40 1
    14    5    6 1
    15    5    8 1
    16    5   64 1
    17    6    7 1
    18    6   41 1
    19    6   42 1
    20    7   43 1
    21    7   44 1
    22    8   13 ar
    23    8    9 ar
    24    9   10 ar
    25    9   45 1
    26   10   11 ar
    27   10   24 1
    28   11   12 ar
    29   11   46 1
    30   12   13 ar
    31   12   47 1
    32   13   14 1
    33   14   15 am
    34   14   48 1
    35   15   16 2
    36   15   17 1
    37   17   21 1
    38   17   18 2
    39   18   19 1
    40   18   49 1
    41   19   20 2
    42   19   50 1
    43   20   21 1
    44   20   22 1
    45   22   23 3
    46   24   29 1
    47   24   25 1
    48   25   26 1
    49   25   51 1
    50   25   52 1
    51   26   27 1
    52   26   53 1
    53   26   54 1
    54   27   28 1
    55   27   30 1
    56   28   29 1
    57   28   55 1
    58   28   56 1
    59   29   57 1
    60   29   58 1
    61   30   31 1
    62   30   59 1
    63   30   60 1
    64   31   32 1
    65   31   61 1
    66   31   62 1
    67   32   63 1
@<TRIPOS>MOLECULE
CHEMBL398237__2
   64    67     0     0     0
SMALL
USER_CHARGES

@<TRIPOS>ATOM
      1 C1          0.0268    1.3075   -0.1622 C.3       1 <0>        -0.1502
      2 C2          0.0004   -0.2210   -0.1001 C.3       1 <0>        -0.0875
      3 C3         -1.4507   -0.7041   -0.0463 C.3       1 <0>        -0.1346
      4 C4         -1.4742   -2.2356   -0.0191 C.3       1 <0>         0.1466
      5 N1         -0.6413   -2.7015    1.0980 N.pl3     1 <0>        -0.6801
      6 C5          0.7452   -2.2247    1.1923 C.3       1 <0>         0.1408
      7 C6          0.7438   -0.6933    1.1515 C.3       1 <0>        -0.1341
      8 C7         -1.1586   -3.5820    2.0539 C.ar      1 <0>         0.1984
      9 C8         -1.0452   -4.9515    1.8701 C.ar      1 <0>        -0.1718
     10 C9         -1.5593   -5.8228    2.8207 C.ar      1 <0>         0.1899
     11 C10        -2.1867   -5.3234    3.9551 C.ar      1 <0>        -0.1688
     12 C11        -2.3013   -3.9589    4.1403 C.ar      1 <0>        -0.0794
     13 C12        -1.7845   -3.0837    3.1966 C.ar      1 <0>         0.0988
     14 N2         -1.8959   -1.6989    3.3886 N.am      1 <0>        -0.6481
     15 C13        -2.8917   -1.2019    4.1486 C.2       1 <0>         0.6052
     16 O1         -3.6511   -1.9570    4.7264 O.2       1 <0>        -0.4936
     17 C14        -3.0605    0.2524    4.2796 C.2       1 <0>        -0.0491
     18 C15        -4.0220    0.8802    5.0205 C.2       1 <0>        -0.1086
     19 C16        -3.8223    2.2568    4.8682 C.2       1 <0>        -0.1291
     20 C17        -2.7377    2.4118    4.0334 C.2       1 <0>         0.0834
     21 O2         -2.2901    1.1889    3.6942 O.3       1 <0>        -0.1460
     22 C18        -2.1797    3.6589    3.6045 C.1       1 <0>         0.2754
     23 N3         -1.7370    4.6483    3.2644 N.1       1 <0>        -0.3482
     24 N4         -1.4458   -7.2046    2.6361 N.pl3     1 <0>        -0.6435
     25 C19        -1.8825   -8.1455    3.6792 C.3       1 <0>         0.1005
     26 C20        -2.7998   -9.1913    3.0368 C.3       1 <0>        -0.0231
     27 N5         -2.1066   -9.8200    1.9053 N.4       1 <0>        -0.3806
     28 C21        -1.8512   -8.8224    0.8586 C.3       1 <0>        -0.0273
     29 C22        -0.8921   -7.7584    1.3907 C.3       1 <0>         0.1025
     30 C23        -2.9424  -10.8974    1.3588 C.3       1 <0>        -0.0054
     31 C24        -2.1713  -11.6345    0.2619 C.3       1 <0>         0.0447
     32 O3         -1.0373  -12.2890    0.8343 O.3       1 <0>        -0.5802
     33 H1          1.0603    1.6517   -0.2018 H         1 <0>         0.0569
     34 H2         -0.5026    1.6441   -1.0536 H         1 <0>         0.0566
     35 H3         -0.4584    1.7156    0.7244 H         1 <0>         0.0518
     36 H4          0.4861   -0.6289   -0.9865 H         1 <0>         0.0726
     37 H5         -1.9300   -0.3169    0.8529 H         1 <0>         0.0610
     38 H6         -1.9857   -0.3476   -0.9265 H         1 <0>         0.0724
     39 H7         -2.4981   -2.5830    0.1189 H         1 <0>         0.0676
     40 H8         -1.0777   -2.6239   -0.9572 H         1 <0>         0.0545
     41 H9          1.1857   -2.5648    2.1295 H         1 <0>         0.0700
     42 H10         1.3227   -2.6120    0.3529 H         1 <0>         0.0572
     43 H11         1.7708   -0.3292    1.1238 H         1 <0>         0.0755
     44 H12         0.2439   -0.3062    2.0394 H         1 <0>         0.0573
     45 H13        -0.5578   -5.3401    0.9881 H         1 <0>         0.1283
     46 H14        -2.5859   -6.0029    4.6935 H         1 <0>         0.1278
     47 H15        -2.7899   -3.5735    5.0229 H         1 <0>         0.1601
     48 H16        -1.2562   -1.0989    2.9743 H         1 <0>         0.4174
     49 H17        -4.7906    0.4042    5.6114 H         1 <0>         0.1781
     50 H18        -4.4063    3.0459    5.3184 H         1 <0>         0.1780
     51 H19        -1.0135   -8.6386    4.1148 H         1 <0>         0.0880
     52 H20        -2.4279   -7.6063    4.4538 H         1 <0>         0.1284
     53 H21        -3.0559   -9.9521    3.7742 H         1 <0>         0.1408
     54 H22        -3.7100   -8.7077    2.6822 H         1 <0>         0.1330
     55 H23        -1.4082   -9.3112   -0.0091 H         1 <0>         0.1382
     56 H24        -2.7900   -8.3499    0.5699 H         1 <0>         0.1326
     57 H25        -0.7829   -6.9634    0.6531 H         1 <0>         0.1251
     58 H26         0.0787   -8.2117    1.5913 H         1 <0>         0.0863
     59 H27        -3.1998  -11.5966    2.1544 H         1 <0>         0.1392
     60 H28        -3.8543  -10.4726    0.9392 H         1 <0>         0.1417
     61 H29        -2.8213  -12.3750   -0.2042 H         1 <0>         0.0957
     62 H30        -1.8370  -10.9198   -0.4902 H         1 <0>         0.0715
     63 H31        -0.5009  -12.7774    0.1950 H         1 <0>         0.4096
     64 H32        -1.2296  -10.2056    2.2219 H         1 <0>         0.4299
@<TRIPOS>BOND
     1    1    2 1
     2    1   33 1
     3    1   34 1
     4    1   35 1
     5    2    7 1
     6    2    3 1
     7    2   36 1
     8    3    4 1
     9    3   37 1
    10    3   38 1
    11    4    5 1
    12    4   39 1
    13    4   40 1
    14    5    6 1
    15    5    8 1
    16    6    7 1
    17    6   41 1
    18    6   42 1
    19    7   43 1
    20    7   44 1
    21    8   13 ar
    22    8    9 ar
    23    9   10 ar
    24    9   45 1
    25   10   11 ar
    26   10   24 1
    27   11   12 ar
    28   11   46 1
    29   12   13 ar
    30   12   47 1
    31   13   14 1
    32   14   15 am
    33   14   48 1
    34   15   16 2
    35   15   17 1
    36   17   21 1
    37   17   18 2
    38   18   19 1
    39   18   49 1
    40   19   20 2
    41   19   50 1
    42   20   21 1
    43   20   22 1
    44   22   23 3
    45   24   29 1
    46   24   25 1
    47   25   26 1
    48   25   51 1
    49   25   52 1
    50   26   27 1
    51   26   53 1
    52   26   54 1
    53   27   28 1
    54   27   30 1
    55   27   64 1
    56   28   29 1
    57   28   55 1
    58   28   56 1
    59   29   57 1
    60   29   58 1
    61   30   31 1
    62   30   59 1
    63   30   60 1
    64   31   32 1
    65   31   61 1
    66   31   62 1
    67   32   63 1
@<TRIPOS>MOLECULE
CHEMBL254909
   62    65     0     0     0
SMALL
USER_CHARGES

@<TRIPOS>ATOM
      1 C1          0.5470    2.0224   -0.3048 C.3       1 <0>        -0.1487
      2 C2          0.5730    0.4935   -0.2529 C.3       1 <0>        -0.0916
      3 C3         -0.8605   -0.0419   -0.2772 C.3       1 <0>        -0.1319
      4 C4         -0.8296   -1.5734   -0.2600 C.3       1 <0>         0.1452
      5 N1         -0.0391   -2.0175    0.8961 N.pl3     1 <0>        -0.6768
      6 C5          1.3225   -1.4918    1.0649 C.3       1 <0>         0.1398
      7 C6          1.2675    0.0388    1.0328 C.3       1 <0>        -0.1301
      8 C7         -0.5728   -2.9234    1.8188 C.ar      1 <0>         0.1926
      9 C8         -0.4004   -4.2865    1.6333 C.ar      1 <0>        -0.1853
     10 C9         -0.9308   -5.1829    2.5510 C.ar      1 <0>         0.2131
     11 C10        -1.6340   -4.7151    3.6538 C.ar      1 <0>        -0.1817
     12 C11        -1.8075   -3.3569    3.8405 C.ar      1 <0>        -0.0748
     13 C12        -1.2745   -2.4567    2.9303 C.ar      1 <0>         0.0784
     14 N2         -1.4458   -1.0778    3.1241 N.am      1 <0>        -0.6561
     15 C13        -2.4967   -0.6226    3.8348 C.2       1 <0>         0.5855
     16 O1         -3.2560   -1.4091    4.3698 O.2       1 <0>        -0.5060
     17 C14        -2.7254    0.8215    3.9636 C.2       1 <0>        -0.0532
     18 C15        -3.7428    1.4107    4.6554 C.2       1 <0>        -0.0480
     19 C16        -3.5832    2.8076    4.5165 C.2       1 <0>        -0.1279
     20 C17        -2.4614    3.0126    3.7363 C.2       1 <0>         0.1011
     21 N3         -1.9460    1.8140    3.4115 N.pl3     1 <0>        -0.5261
     22 H1         -1.1529    1.6709    2.8718 H         1 <0>         0.4222
     23 C18        -4.4257    3.8202    5.0781 C.1       1 <0>         0.2840
     24 N4         -5.0940    4.6236    5.5237 N.1       1 <0>        -0.4247
     25 N5         -0.7574   -6.5584    2.3648 N.pl3     1 <0>        -0.6292
     26 C19        -1.2134   -7.5145    3.3836 C.3       1 <0>         0.1088
     27 C20        -2.1599   -8.5229    2.7206 C.3       1 <0>         0.0940
     28 N6         -1.5189   -9.0379    1.5025 N.am      1 <0>        -0.6150
     29 C21        -1.0629   -8.0818    0.4837 C.3       1 <0>         0.0890
     30 C22        -0.1214   -7.0737    1.1442 C.3       1 <0>         0.1084
     31 C23        -1.3518  -10.3631    1.3231 C.2       1 <0>         0.5133
     32 O2         -1.6392  -11.1364    2.2121 O.2       1 <0>        -0.5432
     33 C24        -0.8079  -10.8842    0.0178 C.3       1 <0>        -0.1767
     34 H2          1.5679    2.4039   -0.2887 H         1 <0>         0.0573
     35 H3          0.0524    2.3465   -1.2205 H         1 <0>         0.0575
     36 H4          0.0021    2.4061    0.5577 H         1 <0>         0.0477
     37 H5          1.1183    0.1101   -1.1153 H         1 <0>         0.0750
     38 H6         -1.3993    0.3210    0.5981 H         1 <0>         0.0555
     39 H7         -1.3619    0.3017   -1.1820 H         1 <0>         0.0717
     40 H8         -1.8460   -1.9585   -0.1774 H         1 <0>         0.0696
     41 H9         -0.3713   -1.9400   -1.1786 H         1 <0>         0.0530
     42 H10         1.7260   -1.8230    2.0217 H         1 <0>         0.0706
     43 H11         1.9562   -1.8517    0.2544 H         1 <0>         0.0555
     44 H12         2.2806    0.4399    1.0605 H         1 <0>         0.0748
     45 H13         0.7086    0.4009    1.8958 H         1 <0>         0.0483
     46 H14         0.1457   -4.6505    0.7756 H         1 <0>         0.1270
     47 H15        -2.0462   -5.4141    4.3664 H         1 <0>         0.1273
     48 H16        -2.3550   -2.9960    4.6986 H         1 <0>         0.1554
     49 H17        -0.8080   -0.4520    2.7467 H         1 <0>         0.4013
     50 H18        -4.5231    0.9050    5.2048 H         1 <0>         0.1634
     51 H19        -2.0639    3.9724    3.4410 H         1 <0>         0.1906
     52 H20        -0.3551   -8.0394    3.8029 H         1 <0>         0.0677
     53 H21        -1.7418   -6.9821    4.1744 H         1 <0>         0.0974
     54 H22        -2.3559   -9.3466    3.4070 H         1 <0>         0.1029
     55 H23        -3.0963   -8.0293    2.4605 H         1 <0>         0.0730
     56 H24        -0.5344   -8.6142   -0.3071 H         1 <0>         0.0994
     57 H25        -1.9212   -7.5569    0.0644 H         1 <0>         0.0750
     58 H26         0.0711   -6.2503    0.4565 H         1 <0>         0.0956
     59 H27         0.8164   -7.5665    1.4004 H         1 <0>         0.0667
     60 H28         0.2708  -11.0166    0.1007 H         1 <0>         0.0952
     61 H29        -1.2747  -11.8415   -0.2140 H         1 <0>         0.0955
     62 H30        -1.0265  -10.1713   -0.7773 H         1 <0>         0.0820
@<TRIPOS>BOND
     1    1    2 1
     2    1   34 1
     3    1   35 1
     4    1   36 1
     5    2    7 1
     6    2    3 1
     7    2   37 1
     8    3    4 1
     9    3   38 1
    10    3   39 1
    11    4    5 1
    12    4   40 1
    13    4   41 1
    14    5    6 1
    15    5    8 1
    16    6    7 1
    17    6   42 1
    18    6   43 1
    19    7   44 1
    20    7   45 1
    21    8   13 ar
    22    8    9 ar
    23    9   10 ar
    24    9   46 1
    25   10   11 ar
    26   10   25 1
    27   11   12 ar
    28   11   47 1
    29   12   13 ar
    30   12   48 1
    31   13   14 1
    32   14   15 am
    33   14   49 1
    34   15   16 2
    35   15   17 1
    36   17   21 1
    37   17   18 2
    38   18   19 1
    39   18   50 1
    40   19   20 2
    41   19   23 1
    42   20   21 1
    43   20   51 1
    44   21   22 1
    45   23   24 3
    46   25   30 1
    47   25   26 1
    48   26   27 1
    49   26   52 1
    50   26   53 1
    51   27   28 1
    52   27   54 1
    53   27   55 1
    54   28   29 1
    55   28   31 am
    56   29   30 1
    57   29   56 1
    58   29   57 1
    59   30   58 1
    60   30   59 1
    61   31   32 2
    62   31   33 1
    63   33   60 1
    64   33   61 1
    65   33   62 1
@<TRIPOS>MOLECULE
CHEMBL254909__1
   63    66     0     0     0
SMALL
USER_CHARGES

@<TRIPOS>ATOM
      1 C1          0.1296    1.7064   -0.0638 C.3       1 <0>        -0.1538
      2 C2          0.0161    0.1883    0.0891 C.3       1 <0>        -0.1050
      3 C3         -1.4560   -0.2015    0.2510 C.3       1 <0>        -0.1432
      4 C4         -1.5558   -1.7107    0.4828 C.3       1 <0>        -0.0059
      5 N1         -0.8158   -2.0728    1.6977 N.4       1 <0>        -0.3155
      6 C5          0.6092   -1.7678    1.5224 C.3       1 <0>        -0.0098
      7 C6          0.7923   -0.2608    1.3305 C.3       1 <0>        -0.1432
      8 C7         -0.9713   -3.4397    1.9464 C.ar      1 <0>        -0.0267
      9 C8         -0.6409   -4.3606    0.9719 C.ar      1 <0>        -0.1684
     10 C9         -0.7953   -5.7184    1.2190 C.ar      1 <0>         0.2364
     11 C10        -1.2821   -6.1500    2.4463 C.ar      1 <0>        -0.1309
     12 C11        -1.6122   -5.2292    3.4203 C.ar      1 <0>        -0.0556
     13 C12        -1.4524   -3.8715    3.1752 C.ar      1 <0>         0.1260
     14 N2         -1.7816   -2.9375    4.1658 N.am      1 <0>        -0.6875
     15 C13        -2.6831   -3.2531    5.1166 C.2       1 <0>         0.6016
     16 O1         -3.2865   -4.3083    5.0568 O.2       1 <0>        -0.4795
     17 C14        -2.9371   -2.3243    6.2242 C.2       1 <0>        -0.0758
     18 C15        -3.8150   -2.5241    7.2492 C.2       1 <0>        -0.0294
     19 C16        -3.7410   -1.3875    8.0850 C.2       1 <0>        -0.1184
     20 C17        -2.8097   -0.5329    7.5268 C.2       1 <0>         0.1158
     21 N3         -2.3256   -1.1041    6.4102 N.pl3     1 <0>        -0.5314
     22 H1         -1.6541   -0.7173    5.8268 H         1 <0>         0.4206
     23 C18        -4.4902   -1.1634    9.2847 C.1       1 <0>         0.2711
     24 N4         -5.0844   -0.9855   10.2364 N.1       1 <0>        -0.4048
     25 N5         -0.4611   -6.6515    0.2316 N.pl3     1 <0>        -0.6154
     26 C19         0.1677   -6.2188   -1.0243 C.3       1 <0>         0.1047
     27 C20         1.4766   -6.9963   -1.2103 C.3       1 <0>         0.0953
     28 N6          1.2056   -8.4268   -1.0100 N.am      1 <0>        -0.6197
     29 C21         0.5767   -8.8595    0.2459 C.3       1 <0>         0.0846
     30 C22        -0.7270   -8.0826    0.4342 C.3       1 <0>         0.0985
     31 C23         1.5276   -9.3257   -1.9611 C.2       1 <0>         0.5160
     32 O2          2.1361   -8.9719   -2.9487 O.2       1 <0>        -0.5352
     33 C24         1.1314  -10.7705   -1.7975 C.3       1 <0>        -0.1813
     34 H2          1.1783    1.9833   -0.1718 H         1 <0>         0.0683
     35 H3         -0.4232    2.0248   -0.9476 H         1 <0>         0.0685
     36 H4         -0.2855    2.1925    0.8191 H         1 <0>         0.0617
     37 H5          0.4284   -0.2989   -0.7945 H         1 <0>         0.0908
     38 H6         -1.8806    0.3268    1.1046 H         1 <0>         0.0874
     39 H7         -2.0045    0.0650   -0.6524 H         1 <0>         0.1164
     40 H8         -2.6026   -1.9917    0.5983 H         1 <0>         0.1327
     41 H9         -1.1311   -2.2380   -0.3714 H         1 <0>         0.1312
     42 H10         1.1607   -2.0909    2.4053 H         1 <0>         0.1311
     43 H11         0.9877   -2.2939    0.6460 H         1 <0>         0.1322
     44 H12         1.8509   -0.0366    1.1987 H         1 <0>         0.1165
     45 H13         0.4143    0.2663    2.2065 H         1 <0>         0.0867
     46 H14        -0.2629   -4.0249    0.0176 H         1 <0>         0.1461
     47 H15        -1.4025   -7.2059    2.6384 H         1 <0>         0.1501
     48 H16        -1.9910   -5.5648    4.3744 H         1 <0>         0.1697
     49 H17        -1.3608   -2.0635    4.1674 H         1 <0>         0.3945
     50 H18        -4.4473   -3.3876    7.3940 H         1 <0>         0.1676
     51 H19        -2.5174    0.4286    7.9225 H         1 <0>         0.1966
     52 H20        -0.5022   -6.4253   -1.8590 H         1 <0>         0.0795
     53 H21         0.3801   -5.1507   -0.9781 H         1 <0>         0.0898
     54 H22         1.8584   -6.8340   -2.2182 H         1 <0>         0.1077
     55 H23         2.2106   -6.6572   -0.4793 H         1 <0>         0.0724
     56 H24         0.3644   -9.9276    0.1997 H         1 <0>         0.1120
     57 H25         1.2467   -8.6530    1.0806 H         1 <0>         0.0786
     58 H26        -1.1054   -8.2451    1.4435 H         1 <0>         0.1018
     59 H27        -1.4621   -8.4249   -0.2942 H         1 <0>         0.0817
     60 H28         0.5145  -10.8793   -0.9055 H         1 <0>         0.0827
     61 H29         0.5661  -11.0935   -2.6718 H         1 <0>         0.1005
     62 H30         2.0269  -11.3837   -1.6970 H         1 <0>         0.1006
     63 H31        -1.1774   -1.5475    2.4796 H         1 <0>         0.4104
@<TRIPOS>BOND
     1    1    2 1
     2    1   34 1
     3    1   35 1
     4    1   36 1
     5    2    7 1
     6    2    3 1
     7    2   37 1
     8    3    4 1
     9    3   38 1
    10    3   39 1
    11    4    5 1
    12    4   40 1
    13    4   41 1
    14    5    6 1
    15    5    8 1
    16    5   63 1
    17    6    7 1
    18    6   42 1
    19    6   43 1
    20    7   44 1
    21    7   45 1
    22    8   13 ar
    23    8    9 ar
    24    9   10 ar
    25    9   46 1
    26   10   11 ar
    27   10   25 1
    28   11   12 ar
    29   11   47 1
    30   12   13 ar
    31   12   48 1
    32   13   14 1
    33   14   15 am
    34   14   49 1
    35   15   16 2
    36   15   17 1
    37   17   21 1
    38   17   18 2
    39   18   19 1
    40   18   50 1
    41   19   20 2
    42   19   23 1
    43   20   21 1
    44   20   51 1
    45   21   22 1
    46   23   24 3
    47   25   30 1
    48   25   26 1
    49   26   27 1
    50   26   52 1
    51   26   53 1
    52   27   28 1
    53   27   54 1
    54   27   55 1
    55   28   29 1
    56   28   31 am
    57   29   30 1
    58   29   56 1
    59   29   57 1
    60   30   58 1
    61   30   59 1
    62   31   32 2
    63   31   33 1
    64   33   60 1
    65   33   61 1
    66   33   62 1
@<TRIPOS>MOLECULE
CHEMBL252822
   54    57     0     0     0
SMALL
USER_CHARGES

@<TRIPOS>ATOM
      1 C1          0.0550    1.1382    0.2762 C.ar      1 <0>        -0.1787
      2 C2          1.1841    1.9283    0.1708 C.ar      1 <0>        -0.0633
      3 C3          2.4374    1.3414    0.0861 C.ar      1 <0>         0.0791
      4 C4          2.5585   -0.0485    0.1079 C.ar      1 <0>         0.2031
      5 C5          1.4247   -0.8388    0.2141 C.ar      1 <0>        -0.1826
      6 C6          0.1721   -0.2454    0.2981 C.ar      1 <0>         0.2080
      7 N1         -0.9727   -1.0420    0.4053 N.pl3     1 <0>        -0.6402
      8 C7         -2.2961   -0.4185    0.3560 C.3       1 <0>         0.1287
      9 C8         -3.0402   -0.8964   -0.8953 C.3       1 <0>        -0.6258
     10 S1         -3.1565   -2.7094   -0.8520 S.o2      1 <0>         2.4179
     11 O1         -3.6176   -3.1627   -2.1174 O.2       1 <0>        -0.9381
     12 O2         -3.8648   -3.0887    0.3200 O.2       1 <0>        -0.9325
     13 C9         -1.4166   -3.1985   -0.6624 C.3       1 <0>        -0.6267
     14 C10        -0.8349   -2.4911    0.5597 C.3       1 <0>         0.1297
     15 N2          3.8215   -0.6432    0.0221 N.pl3     1 <0>        -0.6776
     16 C11         4.5938   -0.9387    1.2366 C.3       1 <0>         0.1416
     17 C12         4.9947   -2.4171    1.2185 C.3       1 <0>        -0.1354
     18 C13         5.7328   -2.7255   -0.0862 C.3       1 <0>        -0.1166
     19 C14         4.8043   -2.4622   -1.2740 C.3       1 <0>        -0.1364
     20 C15         4.3987   -0.9899   -1.2838 C.3       1 <0>         0.1471
     21 N3          3.5824    2.1440   -0.0218 N.am      1 <0>        -0.6452
     22 C16         3.5313    3.3019   -0.7096 C.2       1 <0>         0.6011
     23 O3          2.4737    3.6905   -1.1690 O.2       1 <0>        -0.4948
     24 C17         4.7532    4.0953   -0.9048 C.2       1 <0>        -0.0370
     25 C18         4.8341    5.2836   -1.5749 C.2       1 <0>        -0.1170
     26 C19         6.1711    5.6929   -1.5224 C.2       1 <0>        -0.1278
     27 C20         6.8554    4.7283   -0.8162 C.2       1 <0>         0.0741
     28 O4          5.9791    3.7757   -0.4483 O.3       1 <0>        -0.1446
     29 C21         8.2565    4.7398   -0.5204 C.1       1 <0>         0.2813
     30 N4          9.3679    4.7489   -0.2858 N.1       1 <0>        -0.3575
     31 H1         -0.9198    1.5978    0.3462 H         1 <0>         0.1318
     32 H2          1.0901    3.0041    0.1540 H         1 <0>         0.1436
     33 H3          1.5154   -1.9148    0.2309 H         1 <0>         0.1312
     34 H4         -2.8626   -0.6978    1.2444 H         1 <0>         0.0921
     35 H5         -2.1860    0.6654    0.3214 H         1 <0>         0.1109
     36 H6         -4.0417   -0.4665   -0.9113 H         1 <0>         0.1468
     37 H7         -2.4934   -0.5866   -1.7859 H         1 <0>         0.1379
     38 H8         -1.3534   -4.2780   -0.5255 H         1 <0>         0.1460
     39 H9         -0.8565   -2.9076   -1.5511 H         1 <0>         0.1371
     40 H10         0.2201   -2.7474    0.6568 H         1 <0>         0.1077
     41 H11        -1.3708   -2.8139    1.4523 H         1 <0>         0.0914
     42 H12         5.4892   -0.3176    1.2604 H         1 <0>         0.0504
     43 H13         3.9829   -0.7365    2.1164 H         1 <0>         0.0704
     44 H14         5.6487   -2.6271    2.0649 H         1 <0>         0.0679
     45 H15         4.1009   -3.0373    1.2862 H         1 <0>         0.0636
     46 H16         6.6130   -2.0875   -0.1650 H         1 <0>         0.0611
     47 H17         6.0408   -3.7711   -0.0908 H         1 <0>         0.0606
     48 H18         5.3228   -2.7043   -2.2017 H         1 <0>         0.0679
     49 H19         3.9123   -3.0819   -1.1828 H         1 <0>         0.0629
     50 H20         3.6590   -0.8214   -2.0665 H         1 <0>         0.0680
     51 H21         5.2778   -0.3730   -1.4701 H         1 <0>         0.0493
     52 H22         4.4111    1.8658    0.3986 H         1 <0>         0.4149
     53 H23         4.0204    5.8071   -2.0546 H         1 <0>         0.1770
     54 H24         6.5867    6.5919   -1.9531 H         1 <0>         0.1757
@<TRIPOS>BOND
     1    1    6 ar
     2    1    2 ar
     3    1   31 1
     4    2    3 ar
     5    2   32 1
     6    3    4 ar
     7    3   21 1
     8    4    5 ar
     9    4   15 1
    10    5    6 ar
    11    5   33 1
    12    6    7 1
    13    7   14 1
    14    7    8 1
    15    8    9 1
    16    8   34 1
    17    8   35 1
    18    9   10 1
    19    9   36 1
    20    9   37 1
    21   10   11 2
    22   10   12 2
    23   10   13 1
    24   13   14 1
    25   13   38 1
    26   13   39 1
    27   14   40 1
    28   14   41 1
    29   15   20 1
    30   15   16 1
    31   16   17 1
    32   16   42 1
    33   16   43 1
    34   17   18 1
    35   17   44 1
    36   17   45 1
    37   18   19 1
    38   18   46 1
    39   18   47 1
    40   19   20 1
    41   19   48 1
    42   19   49 1
    43   20   50 1
    44   20   51 1
    45   21   22 am
    46   21   52 1
    47   22   23 2
    48   22   24 1
    49   24   28 1
    50   24   25 2
    51   25   26 1
    52   25   53 1
    53   26   27 2
    54   26   54 1
    55   27   28 1
    56   27   29 1
    57   29   30 3
@<TRIPOS>MOLECULE
CHEMBL254498
   64    67     0     0     0
SMALL
USER_CHARGES

@<TRIPOS>ATOM
      1 C1         -1.0780    0.6895    0.5763 C.3       1 <0>        -0.0476
      2 N1         -0.6463   -0.6504    0.1567 N.4       1 <0>        -0.3842
      3 C2          0.4754   -0.5294   -0.7831 C.3       1 <0>        -0.0228
      4 C3          0.8517   -1.9184   -1.3094 C.3       1 <0>         0.1102
      5 N2          1.1152   -2.7971   -0.1594 N.am      1 <0>        -0.6472
      6 C4          0.1113   -2.8533    0.9145 C.3       1 <0>         0.0392
      7 C5         -0.2300   -1.4202    1.3358 C.3       1 <0>        -0.0259
      8 C6          2.2440   -3.5303   -0.0918 C.2       1 <0>         0.7146
      9 O1          2.8325   -3.8358   -1.1110 O.2       1 <0>        -0.5316
     10 N3          2.7206   -3.9248    1.1055 N.am      1 <0>        -0.5579
     11 C7          2.1257   -3.4036    2.3386 C.3       1 <0>         0.0531
     12 C8          3.7851   -4.8334    1.1709 C.ar      1 <0>         0.1416
     13 C9          4.2451   -5.4476    0.0133 C.ar      1 <0>        -0.1347
     14 C10         5.2943   -6.3444    0.0740 C.ar      1 <0>        -0.1018
     15 C11         5.8916   -6.6337    1.2919 C.ar      1 <0>         0.1221
     16 C12         5.4321   -6.0181    2.4563 C.ar      1 <0>         0.1748
     17 C13         4.3826   -5.1146    2.3917 C.ar      1 <0>        -0.1414
     18 N4          6.0324   -6.3081    3.6860 N.pl3     1 <0>        -0.6765
     19 C14         7.1693   -5.5133    4.1701 C.3       1 <0>         0.1395
     20 C15         6.8478   -4.9984    5.5766 C.3       1 <0>        -0.1337
     21 C16         6.4788   -6.1802    6.4761 C.3       1 <0>        -0.1187
     22 C17         5.2346   -6.8773    5.9208 C.3       1 <0>        -0.1345
     23 C18         5.5340   -7.4096    4.5210 C.3       1 <0>         0.1443
     24 N5          6.9559   -7.5442    1.3526 N.am      1 <0>        -0.6478
     25 C19         7.0803   -8.4992    0.4098 C.2       1 <0>         0.6053
     26 O2          6.3156   -8.5235   -0.5363 O.2       1 <0>        -0.4890
     27 C20         8.1398   -9.5116    0.5245 C.2       1 <0>        -0.0458
     28 C21         8.3746  -10.5244   -0.3624 C.2       1 <0>        -0.1101
     29 C22         9.4681  -11.2494    0.1243 C.2       1 <0>        -0.1286
     30 C23         9.8574  -10.6427    1.2980 C.2       1 <0>         0.0815
     31 O3          9.0451   -9.5927    1.5181 O.3       1 <0>        -0.1456
     32 C24        10.9426  -11.0549    2.1365 C.1       1 <0>         0.2776
     33 N6         11.8035  -11.3820    2.8017 N.1       1 <0>        -0.3514
     34 H1         -0.2511    1.1995    1.0706 H         1 <0>         0.1221
     35 H2         -1.3873    1.2621   -0.2981 H         1 <0>         0.1269
     36 H3         -1.9159    0.6013    1.2679 H         1 <0>         0.1263
     37 H4          0.1834    0.1085   -1.6173 H         1 <0>         0.1469
     38 H5          1.3320   -0.0901   -0.2719 H         1 <0>         0.1327
     39 H6          0.0281   -2.3225   -1.8980 H         1 <0>         0.0971
     40 H7          1.7465   -1.8458   -1.9275 H         1 <0>         0.1346
     41 H8         -0.7870   -3.3518    0.5504 H         1 <0>         0.0978
     42 H9          0.5166   -3.3989    1.7666 H         1 <0>         0.1591
     43 H10         0.6480   -0.9539    1.7828 H         1 <0>         0.1331
     44 H11        -1.0418   -1.4387    2.0629 H         1 <0>         0.1465
     45 H12         1.3464   -4.0841    2.6819 H         1 <0>         0.0808
     46 H13         2.8957   -3.3168    3.1052 H         1 <0>         0.0931
     47 H14         1.6921   -2.4222    2.1463 H         1 <0>         0.0785
     48 H15         3.7815   -5.2239   -0.9361 H         1 <0>         0.1747
     49 H16         5.6494   -6.8210   -0.8277 H         1 <0>         0.1610
     50 H17         4.0274   -4.6334    3.2910 H         1 <0>         0.1303
     51 H18         8.0627   -6.1368    4.2046 H         1 <0>         0.0531
     52 H19         7.3361   -4.6690    3.5011 H         1 <0>         0.0696
     53 H20         7.7200   -4.4883    5.9855 H         1 <0>         0.0695
     54 H21         6.0095   -4.3035    5.5268 H         1 <0>         0.0612
     55 H22         7.3081   -6.8869    6.5058 H         1 <0>         0.0634
     56 H23         6.2734   -5.8192    7.4839 H         1 <0>         0.0621
     57 H24         4.9587   -7.7045    6.5747 H         1 <0>         0.0698
     58 H25         4.4116   -6.1646    5.8677 H         1 <0>         0.0609
     59 H26         4.6222   -7.8161    4.0835 H         1 <0>         0.0684
     60 H27         6.2911   -8.1912    4.5848 H         1 <0>         0.0522
     61 H28         7.6027   -7.4868    2.0732 H         1 <0>         0.4185
     62 H29         7.8210  -10.7271   -1.2673 H         1 <0>         0.1781
     63 H30         9.9194  -12.1179   -0.3322 H         1 <0>         0.1776
     64 H31        -1.4134   -1.1225   -0.2980 H         1 <0>         0.4271
@<TRIPOS>BOND
     1    1    2 1
     2    1   34 1
     3    1   35 1
     4    1   36 1
     5    2    7 1
     6    2    3 1
     7    2   64 1
     8    3    4 1
     9    3   37 1
    10    3   38 1
    11    4    5 1
    12    4   39 1
    13    4   40 1
    14    5    6 1
    15    5    8 am
    16    6    7 1
    17    6   41 1
    18    6   42 1
    19    7   43 1
    20    7   44 1
    21    8    9 2
    22    8   10 am
    23   10   11 1
    24   10   12 1
    25   11   45 1
    26   11   46 1
    27   11   47 1
    28   12   17 ar
    29   12   13 ar
    30   13   14 ar
    31   13   48 1
    32   14   15 ar
    33   14   49 1
    34   15   16 ar
    35   15   24 1
    36   16   17 ar
    37   16   18 1
    38   17   50 1
    39   18   23 1
    40   18   19 1
    41   19   20 1
    42   19   51 1
    43   19   52 1
    44   20   21 1
    45   20   53 1
    46   20   54 1
    47   21   22 1
    48   21   55 1
    49   21   56 1
    50   22   23 1
    51   22   57 1
    52   22   58 1
    53   23   59 1
    54   23   60 1
    55   24   25 am
    56   24   61 1
    57   25   26 2
    58   25   27 1
    59   27   31 1
    60   27   28 2
    61   28   29 1
    62   28   62 1
    63   29   30 2
    64   29   63 1
    65   30   31 1
    66   30   32 1
    67   32   33 3
@<TRIPOS>MOLECULE
CHEMBL254498__1
   63    66     0     0     0
SMALL
USER_CHARGES

@<TRIPOS>ATOM
      1 C1         -1.0159    0.7578    0.4835 C.3       1 <0>         0.0239
      2 N1         -0.6043   -0.5999    0.1024 N.3       1 <0>        -0.5412
      3 C2          0.4879   -0.5629   -0.8793 C.3       1 <0>         0.0382
      4 C3          0.7642   -1.9828   -1.3848 C.3       1 <0>         0.1376
      5 N2          1.0007   -2.8543   -0.2239 N.am      1 <0>        -0.6307
      6 C4          0.0151   -2.8422    0.8677 C.3       1 <0>         0.0699
      7 C5         -0.2318   -1.3884    1.2845 C.3       1 <0>         0.0371
      8 C6          2.0916   -3.6434   -0.1621 C.2       1 <0>         0.7131
      9 O1          2.6493   -3.9910   -1.1852 O.2       1 <0>        -0.5552
     10 N3          2.5644   -4.0473    1.0337 N.am      1 <0>        -0.5649
     11 C7          2.0129   -3.4828    2.2679 C.3       1 <0>         0.0555
     12 C8          3.5831   -5.0070    1.0963 C.ar      1 <0>         0.1626
     13 C9          3.9955   -5.6574   -0.0595 C.ar      1 <0>        -0.1408
     14 C10         4.9995   -6.6047   -0.0015 C.ar      1 <0>        -0.0998
     15 C11         5.5990   -6.9086    1.2118 C.ar      1 <0>         0.1060
     16 C12         5.1873   -6.2567    2.3744 C.ar      1 <0>         0.1731
     17 C13         4.1831   -5.3027    2.3124 C.ar      1 <0>        -0.1496
     18 N4          5.7897   -6.5613    3.5994 N.pl3     1 <0>        -0.6750
     19 C14         6.9716   -5.8184    4.0577 C.3       1 <0>         0.1406
     20 C15         6.6960   -5.2710    5.4617 C.3       1 <0>        -0.1352
     21 C16         6.2815   -6.4219    6.3814 C.3       1 <0>        -0.1165
     22 C17         4.9965   -7.0627    5.8519 C.3       1 <0>        -0.1359
     23 C18         5.2491   -7.6263    4.4552 C.3       1 <0>         0.1456
     24 N5          6.6174   -7.8703    1.2698 N.am      1 <0>        -0.6438
     25 C19         6.6807   -8.8418    0.3379 C.2       1 <0>         0.6000
     26 O2          5.9021   -8.8396   -0.5972 O.2       1 <0>        -0.4887
     27 C20         7.6902   -9.9042    0.4511 C.2       1 <0>        -0.0367
     28 C21         7.8616  -10.9383   -0.4258 C.2       1 <0>        -0.1163
     29 C22         8.9246  -11.7108    0.0552 C.2       1 <0>        -0.1274
     30 C23         9.3605  -11.1098    1.2155 C.2       1 <0>         0.0733
     31 O3          8.6046  -10.0181    1.4331 O.3       1 <0>        -0.1448
     32 C24        10.4359  -11.5653    2.0442 C.1       1 <0>         0.2820
     33 N6         11.2890  -11.9266    2.7016 N.1       1 <0>        -0.3583
     34 H1         -0.1916    1.2581    0.9917 H         1 <0>         0.0264
     35 H2         -1.2863    1.3199   -0.4104 H         1 <0>         0.0719
     36 H3         -1.8751    0.7029    1.1519 H         1 <0>         0.0717
     37 H4          0.2020    0.0725   -1.7176 H         1 <0>         0.0916
     38 H5          1.3862   -0.1630   -0.4090 H         1 <0>         0.0385
     39 H6         -0.0970   -2.3459   -1.9457 H         1 <0>         0.0779
     40 H7          1.6463   -1.9784   -2.0251 H         1 <0>         0.0942
     41 H8         -0.9182   -3.2878    0.5233 H         1 <0>         0.0781
     42 H9          0.4019   -3.4059    1.7167 H         1 <0>         0.1198
     43 H10         0.6766   -0.9770    1.7247 H         1 <0>         0.0397
     44 H11        -1.0395   -1.3517    2.0155 H         1 <0>         0.0903
     45 H12         1.2132   -4.1255    2.6359 H         1 <0>         0.0751
     46 H13         2.7994   -3.4149    3.0195 H         1 <0>         0.0800
     47 H14         1.6159   -2.4878    2.0667 H         1 <0>         0.0917
     48 H15         3.5302   -5.4224   -1.0053 H         1 <0>         0.1783
     49 H16         5.3177   -7.1094   -0.9017 H         1 <0>         0.1575
     50 H17         3.8651   -4.7935    3.2101 H         1 <0>         0.1296
     51 H18         7.8332   -6.4853    4.0882 H         1 <0>         0.0501
     52 H19         7.1706   -4.9917    3.3758 H         1 <0>         0.0700
     53 H20         7.5982   -4.8002    5.8522 H         1 <0>         0.0674
     54 H21         5.8927   -4.5358    5.4144 H         1 <0>         0.0632
     55 H22         7.0750   -7.1687    6.4088 H         1 <0>         0.0611
     56 H23         6.1086   -6.0389    7.3871 H         1 <0>         0.0602
     57 H24         4.6890   -7.8671    6.5201 H         1 <0>         0.0677
     58 H25         4.2092   -6.3106    5.8009 H         1 <0>         0.0629
     59 H26         4.3121   -7.9921    4.0354 H         1 <0>         0.0687
     60 H27         5.9672   -8.4439    4.5187 H         1 <0>         0.0491
     61 H28         7.2765   -7.8364    1.9807 H         1 <0>         0.4159
     62 H29         7.2856  -11.1242   -1.3202 H         1 <0>         0.1777
     63 H30         9.3257  -12.6062   -0.3961 H         1 <0>         0.1758
@<TRIPOS>BOND
     1    1    2 1
     2    1   34 1
     3    1   35 1
     4    1   36 1
     5    2    7 1
     6    2    3 1
     7    3    4 1
     8    3   37 1
     9    3   38 1
    10    4    5 1
    11    4   39 1
    12    4   40 1
    13    5    6 1
    14    5    8 am
    15    6    7 1
    16    6   41 1
    17    6   42 1
    18    7   43 1
    19    7   44 1
    20    8    9 2
    21    8   10 am
    22   10   11 1
    23   10   12 1
    24   11   45 1
    25   11   46 1
    26   11   47 1
    27   12   17 ar
    28   12   13 ar
    29   13   14 ar
    30   13   48 1
    31   14   15 ar
    32   14   49 1
    33   15   16 ar
    34   15   24 1
    35   16   17 ar
    36   16   18 1
    37   17   50 1
    38   18   23 1
    39   18   19 1
    40   19   20 1
    41   19   51 1
    42   19   52 1
    43   20   21 1
    44   20   53 1
    45   20   54 1
    46   21   22 1
    47   21   55 1
    48   21   56 1
    49   22   23 1
    50   22   57 1
    51   22   58 1
    52   23   59 1
    53   23   60 1
    54   24   25 am
    55   24   61 1
    56   25   26 2
    57   25   27 1
    58   27   31 1
    59   27   28 2
    60   28   29 1
    61   28   62 1
    62   29   30 2
    63   29   63 1
    64   30   31 1
    65   30   32 1
    66   32   33 3
@<TRIPOS>MOLECULE
CHEMBL398238
   54    57     0     0     0
SMALL
USER_CHARGES

@<TRIPOS>ATOM
      1 C1          0.0986    1.0241    0.3741 C.ar      1 <0>        -0.1882
      2 C2          1.1970    1.8503    0.2279 C.ar      1 <0>        -0.0602
      3 C3          2.4678    1.3052    0.1275 C.ar      1 <0>         0.0665
      4 C4          2.6379   -0.0789    0.1748 C.ar      1 <0>         0.2052
      5 C5          1.5349   -0.9054    0.3220 C.ar      1 <0>        -0.1896
      6 C6          0.2644   -0.3539    0.4215 C.ar      1 <0>         0.2218
      7 N1         -0.8493   -1.1870    0.5700 N.pl3     1 <0>        -0.6270
      8 C7         -0.6818   -2.6352    0.7527 C.3       1 <0>         0.1214
      9 C8         -1.4384   -3.0639    2.0138 C.3       1 <0>        -0.1366
     10 C9         -2.8956   -2.6080    1.9093 C.3       1 <0>        -0.1195
     11 C10        -2.9484   -1.0817    1.8097 C.3       1 <0>        -0.1375
     12 C11        -2.2087   -0.6298    0.5524 C.3       1 <0>         0.1199
     13 N2          3.9188   -0.6314    0.0733 N.pl3     1 <0>        -0.6771
     14 C12         4.7267   -0.8745    1.2762 C.3       1 <0>         0.1423
     15 C13         5.1784   -2.3383    1.2793 C.3       1 <0>        -0.1354
     16 C14         5.8989   -2.6484   -0.0349 C.3       1 <0>        -0.1161
     17 C15         4.9367   -2.4423   -1.2070 C.3       1 <0>        -0.1363
     18 C16         4.4797   -0.9853   -1.2377 C.3       1 <0>         0.1477
     19 N3          3.5816    2.1444   -0.0218 N.am      1 <0>        -0.6428
     20 C17         3.4754    3.2853   -0.7313 C.2       1 <0>         0.5989
     21 O1          2.3953    3.6274   -1.1753 O.2       1 <0>        -0.4959
     22 C18         4.6642    4.1165   -0.9688 C.2       1 <0>        -0.0342
     23 C19         4.6891    5.2927   -1.6641 C.2       1 <0>        -0.1193
     24 C20         6.0118    5.7493   -1.6488 C.2       1 <0>        -0.1274
     25 C21         6.7442    4.8239   -0.9385 C.2       1 <0>         0.0716
     26 O2          5.9099    3.8492   -0.5327 O.3       1 <0>        -0.1445
     27 C22         8.1499    4.8901   -0.6736 C.1       1 <0>         0.2823
     28 N4          9.2651    4.9427   -0.4634 N.1       1 <0>        -0.3593
     29 H1         -0.8899    1.4512    0.4563 H         1 <0>         0.1274
     30 H2          1.0651    2.9216    0.1913 H         1 <0>         0.1404
     31 H3          1.6635   -1.9771    0.3585 H         1 <0>         0.1269
     32 H4         -1.0853   -3.1617   -0.1122 H         1 <0>         0.0606
     33 H5          0.3769   -2.8694    0.8644 H         1 <0>         0.0813
     34 H6         -1.4027   -4.1492    2.1083 H         1 <0>         0.0723
     35 H7         -0.9760   -2.6067    2.8886 H         1 <0>         0.0661
     36 H8         -3.3503   -3.0458    1.0207 H         1 <0>         0.0631
     37 H9         -3.4422   -2.9332    2.7945 H         1 <0>         0.0642
     38 H10        -3.9875   -0.7562    1.7589 H         1 <0>         0.0735
     39 H11        -2.4718   -0.6432    2.6864 H         1 <0>         0.0663
     40 H12        -2.1571    0.4588    0.5320 H         1 <0>         0.0844
     41 H13        -2.7395   -0.9891   -0.3293 H         1 <0>         0.0614
     42 H14         5.6001   -0.2225    1.2677 H         1 <0>         0.0493
     43 H15         4.1279   -0.6750    2.1650 H         1 <0>         0.0694
     44 H16         5.8573   -2.5078    2.1151 H         1 <0>         0.0670
     45 H17         4.3085   -2.9873    1.3792 H         1 <0>         0.0634
     46 H18         6.7544   -1.9822   -0.1459 H         1 <0>         0.0607
     47 H19         6.2430   -3.6826   -0.0251 H         1 <0>         0.0599
     48 H20         5.4434   -2.6858   -2.1408 H         1 <0>         0.0672
     49 H21         4.0690   -3.0903   -1.0837 H         1 <0>         0.0630
     50 H22         3.7181   -0.8589   -2.0072 H         1 <0>         0.0680
     51 H23         5.3326   -0.3426   -1.4558 H         1 <0>         0.0481
     52 H24         4.4283    1.9036    0.3856 H         1 <0>         0.4134
     53 H25         3.8476    5.7777   -2.1363 H         1 <0>         0.1767
     54 H26         6.3863    6.6531   -2.1063 H         1 <0>         0.1752
@<TRIPOS>BOND
     1    1    6 ar
     2    1    2 ar
     3    1   29 1
     4    2    3 ar
     5    2   30 1
     6    3    4 ar
     7    3   19 1
     8    4    5 ar
     9    4   13 1
    10    5    6 ar
    11    5   31 1
    12    6    7 1
    13    7   12 1
    14    7    8 1
    15    8    9 1
    16    8   32 1
    17    8   33 1
    18    9   10 1
    19    9   34 1
    20    9   35 1
    21   10   11 1
    22   10   36 1
    23   10   37 1
    24   11   12 1
    25   11   38 1
    26   11   39 1
    27   12   40 1
    28   12   41 1
    29   13   18 1
    30   13   14 1
    31   14   15 1
    32   14   42 1
    33   14   43 1
    34   15   16 1
    35   15   44 1
    36   15   45 1
    37   16   17 1
    38   16   46 1
    39   16   47 1
    40   17   18 1
    41   17   48 1
    42   17   49 1
    43   18   50 1
    44   18   51 1
    45   19   20 am
    46   19   52 1
    47   20   21 2
    48   20   22 1
    49   22   26 1
    50   22   23 2
    51   23   24 1
    52   23   53 1
    53   24   25 2
    54   24   54 1
    55   25   26 1
    56   25   27 1
    57   27   28 3
@<TRIPOS>MOLECULE
CHEMBL398238__1
   55    58     0     0     0
SMALL
USER_CHARGES

@<TRIPOS>ATOM
      1 C1         -0.0198    1.3946    0.0311 C.ar      1 <0>        -0.0707
      2 C2          1.1687    2.1010    0.0145 C.ar      1 <0>        -0.0995
      3 C3          2.3780    1.4229   -0.0038 C.ar      1 <0>         0.1879
      4 C4          2.3907    0.0276   -0.0053 C.ar      1 <0>         0.1772
      5 C5          1.1938   -0.6725    0.0114 C.ar      1 <0>        -0.0806
      6 C6         -0.0073    0.0122    0.0296 C.ar      1 <0>        -0.0600
      7 N1         -1.2128   -0.6956    0.0469 N.4       1 <0>        -0.3145
      8 C7         -1.9978   -0.3512   -1.1446 C.3       1 <0>        -0.0074
      9 C8         -3.2817   -1.1834   -1.1723 C.3       1 <0>        -0.1455
     10 C9         -4.1031   -0.8865    0.0856 C.3       1 <0>        -0.1396
     11 C10        -3.2485   -1.1789    1.3223 C.3       1 <0>        -0.1456
     12 C11        -1.9659   -0.3469    1.2575 C.3       1 <0>        -0.0069
     13 N2          3.6072   -0.6629   -0.0242 N.pl3     1 <0>        -0.6786
     14 C12         4.2740   -1.0390    1.2299 C.3       1 <0>         0.1368
     15 C13         4.5599   -2.5438    1.2043 C.3       1 <0>        -0.1348
     16 C14         5.3549   -2.8866   -0.0577 C.3       1 <0>        -0.1209
     17 C15         4.5285   -2.5308   -1.2956 C.3       1 <0>        -0.1356
     18 C16         4.2392   -1.0312   -1.2984 C.3       1 <0>         0.1423
     19 N3          3.5829    2.1362   -0.0211 N.am      1 <0>        -0.6574
     20 C17         3.6641    3.3059   -0.6855 C.2       1 <0>         0.6149
     21 O1          2.6707    3.7827   -1.2016 O.2       1 <0>        -0.4845
     22 C18         4.9527    4.0058   -0.7868 C.2       1 <0>        -0.0595
     23 C19         5.1663    5.1953   -1.4247 C.2       1 <0>        -0.0981
     24 C20         6.5246    5.4990   -1.2804 C.2       1 <0>        -0.1306
     25 C21         7.0871    4.4727   -0.5541 C.2       1 <0>         0.0952
     26 O2          6.1190    3.5849   -0.2616 O.3       1 <0>        -0.1464
     27 C22         8.4632    4.3708   -0.1714 C.1       1 <0>         0.2722
     28 N4          9.5549    4.2900    0.1322 N.1       1 <0>        -0.3419
     29 H1         -0.9608    1.9245    0.0499 H         1 <0>         0.1472
     30 H2          1.1551    3.1809    0.0154 H         1 <0>         0.1653
     31 H3          1.1998   -1.7524    0.0099 H         1 <0>         0.1482
     32 H4         -2.2526    0.7083   -1.1175 H         1 <0>         0.1286
     33 H5         -1.4107   -0.5600   -2.0389 H         1 <0>         0.1303
     34 H6         -3.8640   -0.9249   -2.0567 H         1 <0>         0.1133
     35 H7         -3.0280   -2.2431   -1.1996 H         1 <0>         0.0875
     36 H8         -4.4005    0.1622    0.0877 H         1 <0>         0.0824
     37 H9         -4.9912   -1.5184    0.0985 H         1 <0>         0.0947
     38 H10        -3.8071   -0.9172    2.2209 H         1 <0>         0.1132
     39 H11        -2.9941   -2.2385    1.3467 H         1 <0>         0.0875
     40 H12        -1.3552   -0.5525    2.1366 H         1 <0>         0.1302
     41 H13        -2.2214    0.7125    1.2334 H         1 <0>         0.1284
     42 H14         5.2113   -0.4906    1.3240 H         1 <0>         0.0598
     43 H15         3.6248   -0.8047    2.0735 H         1 <0>         0.0713
     44 H16         5.1395   -2.8190    2.0854 H         1 <0>         0.0745
     45 H17         3.6183   -3.0930    1.2015 H         1 <0>         0.0627
     46 H18         6.2850   -2.3184   -0.0664 H         1 <0>         0.0654
     47 H19         5.5809   -3.9529   -0.0660 H         1 <0>         0.0665
     48 H20         5.0858   -2.7968   -2.1939 H         1 <0>         0.0746
     49 H21         3.5872   -3.0801   -1.2749 H         1 <0>         0.0622
     50 H22         3.5670   -0.7918   -2.1224 H         1 <0>         0.0695
     51 H23         5.1736   -0.4821   -1.4150 H         1 <0>         0.0586
     52 H24         4.3592    1.7883    0.4451 H         1 <0>         0.4261
     53 H25         4.4270    5.7884   -1.9425 H         1 <0>         0.1798
     54 H26         7.0340    6.3703   -1.6649 H         1 <0>         0.1804
     55 H27        -1.0201   -1.6860    0.0455 H         1 <0>         0.4239
@<TRIPOS>BOND
     1    1    6 ar
     2    1    2 ar
     3    1   29 1
     4    2    3 ar
     5    2   30 1
     6    3    4 ar
     7    3   19 1
     8    4    5 ar
     9    4   13 1
    10    5    6 ar
    11    5   31 1
    12    6    7 1
    13    7   12 1
    14    7    8 1
    15    7   55 1
    16    8    9 1
    17    8   32 1
    18    8   33 1
    19    9   10 1
    20    9   34 1
    21    9   35 1
    22   10   11 1
    23   10   36 1
    24   10   37 1
    25   11   12 1
    26   11   38 1
    27   11   39 1
    28   12   40 1
    29   12   41 1
    30   13   18 1
    31   13   14 1
    32   14   15 1
    33   14   42 1
    34   14   43 1
    35   15   16 1
    36   15   44 1
    37   15   45 1
    38   16   17 1
    39   16   46 1
    40   16   47 1
    41   17   18 1
    42   17   48 1
    43   17   49 1
    44   18   50 1
    45   18   51 1
    46   19   20 am
    47   19   52 1
    48   20   21 2
    49   20   22 1
    50   22   26 1
    51   22   23 2
    52   23   24 1
    53   23   53 1
    54   24   25 2
    55   24   54 1
    56   25   26 1
    57   25   27 1
    58   27   28 3
@<TRIPOS>MOLECULE
CHEMBL460472
   70    74     0     0     0
SMALL
USER_CHARGES

@<TRIPOS>ATOM
      1 C1         -0.2435    1.2080   -0.9018 C.3       1 <0>        -0.1142
      2 C2         -0.3319   -0.2896   -0.7592 C.2       1 <0>         0.2986
      3 C3         -0.3747   -1.1981   -1.7989 C.2       1 <0>        -0.4034
      4 C4         -0.4577   -2.5327   -1.1846 C.2       1 <0>         0.5572
      5 O1         -0.5140   -3.5999   -1.7666 O.2       1 <0>        -0.5196
      6 N1         -0.4591   -2.3405    0.1509 N.am      1 <0>        -0.3656
      7 N2         -0.3766   -0.9679    0.4032 N.pl3     1 <0>        -0.3447
      8 C5         -0.3470   -0.3577    1.7347 C.3       1 <0>         0.0795
      9 C6          1.0990   -0.2817    2.2288 C.3       1 <0>         0.1126
     10 C7          1.1198    0.2396    3.6671 C.3       1 <0>        -0.1791
     11 C8          1.7278   -1.6757    2.1824 C.3       1 <0>        -0.1453
     12 O2          1.8430    0.6045    1.3902 O.3       1 <0>        -0.5485
     13 C9         -0.5264   -3.3463    1.1205 C.ar      1 <0>         0.1408
     14 C10        -1.4375   -3.2472    2.1640 C.ar      1 <0>        -0.1320
     15 C11        -1.5017   -4.2423    3.1195 C.ar      1 <0>        -0.0997
     16 C12        -0.6598   -5.3363    3.0383 C.ar      1 <0>        -0.1095
     17 C13         0.2485   -5.4381    2.0006 C.ar      1 <0>        -0.0963
     18 C14         0.3138   -4.4492    1.0386 C.ar      1 <0>        -0.0992
     19 C15        -0.3440   -0.8923   -3.2341 C.2       1 <0>         0.6284
     20 O3         -0.2741    0.2633   -3.6086 O.2       1 <0>        -0.5302
     21 N3         -0.3933   -1.8916   -4.1372 N.am      1 <0>        -0.6468
     22 C16        -0.3206   -1.6040   -5.5001 C.ar      1 <0>         0.3935
     23 C17        -0.6104   -0.3201   -5.9484 C.ar      1 <0>        -0.1771
     24 C18        -0.5351   -0.0459   -7.3019 C.ar      1 <0>        -0.0512
     25 C19        -0.1696   -1.0737   -8.1679 C.ar      1 <0>        -0.0584
     26 C20         0.1049   -2.3290   -7.6494 C.ar      1 <0>         0.1630
     27 N4          0.0287   -2.5547   -6.3517 N.ar      1 <0>        -0.4947
     28 O4         -0.0837   -0.8482   -9.5059 O.3       1 <0>        -0.1992
     29 C21         1.0029   -0.1845   -9.9710 C.ar      1 <0>         0.2956
     30 C22         2.0503    0.1478   -9.1289 C.ar      1 <0>        -0.2764
     31 C23         3.1506    0.8279   -9.6336 C.ar      1 <0>         0.2417
     32 N5          3.2319    1.1706  -10.8981 N.ar      1 <0>        -0.4935
     33 C24         2.2566    0.8820  -11.7674 C.ar      1 <0>         0.2092
     34 C25         1.1039    0.1842  -11.3313 C.ar      1 <0>        -0.1425
     35 C26         0.0853   -0.1225  -12.2459 C.ar      1 <0>         0.0028
     36 C27         0.2118    0.2466  -13.5493 C.ar      1 <0>        -0.1935
     37 C28         1.3485    0.9302  -13.9922 C.ar      1 <0>         0.2287
     38 C29         2.3591    1.2568  -13.1170 C.ar      1 <0>        -0.2042
     39 O5          1.4506    1.2870  -15.2988 O.3       1 <0>        -0.2937
     40 C30         0.3632    0.9316  -16.1553 C.3       1 <0>         0.0139
     41 H1          0.8037    1.5089   -0.9318 H         1 <0>         0.1092
     42 H2         -0.7363    1.5149   -1.8244 H         1 <0>         0.1181
     43 H3         -0.7339    1.6834   -0.0524 H         1 <0>         0.0808
     44 H4         -0.7667    0.6469    1.6835 H         1 <0>         0.1175
     45 H5         -0.9354   -0.9625    2.4247 H         1 <0>         0.1130
     46 H6          0.5524   -0.4364    4.3068 H         1 <0>         0.0728
     47 H7          2.1500    0.2937    4.0191 H         1 <0>         0.0787
     48 H8          0.6718    1.2327    3.7002 H         1 <0>         0.0665
     49 H9          1.7130   -2.0471    1.1578 H         1 <0>         0.0635
     50 H10         2.7580   -1.6216    2.5344 H         1 <0>         0.0723
     51 H11         1.1604   -2.3517    2.8221 H         1 <0>         0.0740
     52 H12         1.5000    1.5085    1.3711 H         1 <0>         0.3762
     53 H13        -2.0948   -2.3927    2.2284 H         1 <0>         0.1263
     54 H14        -2.2100   -4.1658    3.9313 H         1 <0>         0.1352
     55 H15        -0.7115   -6.1128    3.7872 H         1 <0>         0.1339
     56 H16         0.9046   -6.2938    1.9400 H         1 <0>         0.1367
     57 H17         1.0203   -4.5314    0.2259 H         1 <0>         0.1320
     58 H18        -0.4793   -2.8107   -3.8393 H         1 <0>         0.4331
     59 H19        -0.8910    0.4531   -5.2485 H         1 <0>         0.1917
     60 H20        -0.7551    0.9421   -7.6786 H         1 <0>         0.1502
     61 H21         0.3886   -3.1309   -8.3148 H         1 <0>         0.1742
     62 H22         2.0115   -0.1206   -8.0835 H         1 <0>         0.1818
     63 H23         3.9616    1.0822   -8.9673 H         1 <0>         0.2122
     64 H24        -0.7972   -0.6507  -11.9163 H         1 <0>         0.1661
     65 H25        -0.5746    0.0086  -14.2502 H         1 <0>         0.1604
     66 H26         3.2328    1.7852  -13.4691 H         1 <0>         0.1667
     67 H27         0.5719    1.2745  -17.1687 H         1 <0>         0.1192
     68 H28         0.2404   -0.1514  -16.1562 H         1 <0>         0.0710
     69 H29        -0.5520    1.4008  -15.7942 H         1 <0>         0.0709
     70 H30         4.0184    1.6450  -11.2100 H         1 <0>         0.4486
@<TRIPOS>BOND
     1    1    2 1
     2    1   41 1
     3    1   42 1
     4    1   43 1
     5    2    7 1
     6    2    3 2
     7    3    4 1
     8    3   19 1
     9    4    5 2
    10    4    6 am
    11    6    7 1
    12    6   13 1
    13    7    8 1
    14    8    9 1
    15    8   44 1
    16    8   45 1
    17    9   10 1
    18    9   11 1
    19    9   12 1
    20   10   46 1
    21   10   47 1
    22   10   48 1
    23   11   49 1
    24   11   50 1
    25   11   51 1
    26   12   52 1
    27   13   18 ar
    28   13   14 ar
    29   14   15 ar
    30   14   53 1
    31   15   16 ar
    32   15   54 1
    33   16   17 ar
    34   16   55 1
    35   17   18 ar
    36   17   56 1
    37   18   57 1
    38   19   20 2
    39   19   21 am
    40   21   22 1
    41   21   58 1
    42   22   27 ar
    43   22   23 ar
    44   23   24 ar
    45   23   59 1
    46   24   25 ar
    47   24   60 1
    48   25   26 ar
    49   25   28 1
    50   26   27 ar
    51   26   61 1
    52   28   29 1
    53   29   34 ar
    54   29   30 ar
    55   30   31 ar
    56   30   62 1
    57   31   32 ar
    58   31   63 1
    59   32   33 ar
    60   32   70 1
    61   33   38 ar
    62   33   34 ar
    63   34   35 ar
    64   35   36 ar
    65   35   64 1
    66   36   37 ar
    67   36   65 1
    68   37   38 ar
    69   37   39 1
    70   38   66 1
    71   39   40 1
    72   40   67 1
    73   40   68 1
    74   40   69 1
@<TRIPOS>MOLECULE
CHEMBL460472__1
   69    73     0     0     0
SMALL
USER_CHARGES

@<TRIPOS>ATOM
      1 C1         -0.1991    1.2825   -0.8197 C.3       1 <0>        -0.1065
      2 C2         -0.2797   -0.2172   -0.6963 C.2       1 <0>         0.3023
      3 C3         -0.3307   -1.1119   -1.7475 C.2       1 <0>        -0.3987
      4 C4         -0.4010   -2.4549   -1.1502 C.2       1 <0>         0.5565
      5 O1         -0.4596   -3.5144   -1.7459 O.2       1 <0>        -0.5190
      6 N1         -0.3878   -2.2807    0.1876 N.am      1 <0>        -0.3702
      7 N2         -0.3081   -0.9112    0.4574 N.pl3     1 <0>        -0.3526
      8 C5         -0.2656   -0.3188    1.7966 C.3       1 <0>         0.1252
      9 C6          1.1858   -0.2423    2.2746 C.3       1 <0>         0.1102
     10 C7          1.2211    0.2598    3.7194 C.3       1 <0>        -0.1782
     11 C8          1.8206   -1.6324    2.2020 C.3       1 <0>        -0.1846
     12 O2          1.9155    0.6588    1.4393 O.3       1 <0>        -0.5550
     13 C9         -0.4397   -3.2997    1.1443 C.ar      1 <0>         0.1474
     14 C10        -1.3386   -3.2181    2.1999 C.ar      1 <0>        -0.1339
     15 C11        -1.3877   -4.2262    3.1426 C.ar      1 <0>        -0.1004
     16 C12        -0.5427   -5.3157    3.0366 C.ar      1 <0>        -0.1138
     17 C13         0.3535   -5.4000    1.9868 C.ar      1 <0>        -0.0968
     18 C14         0.4036   -4.3980    1.0376 C.ar      1 <0>        -0.1008
     19 C15        -0.3179   -0.7868   -3.1787 C.2       1 <0>         0.6236
     20 O3         -0.2571    0.3741   -3.5384 O.2       1 <0>        -0.5300
     21 N3         -0.3735   -1.7740   -4.0945 N.am      1 <0>        -0.6472
     22 C16        -0.3157   -1.4681   -5.4542 C.ar      1 <0>         0.3679
     23 C17        -0.6160   -0.1798   -5.8824 C.ar      1 <0>        -0.1750
     24 C18        -0.5556    0.1127   -7.2329 C.ar      1 <0>        -0.0623
     25 C19        -0.1939   -0.9017   -8.1160 C.ar      1 <0>        -0.0087
     26 C20         0.0918   -2.1624   -7.6170 C.ar      1 <0>         0.1404
     27 N4          0.0296   -2.4057   -6.3217 N.ar      1 <0>        -0.4965
     28 O4         -0.1224   -0.6581   -9.4517 O.3       1 <0>        -0.2369
     29 C21         0.9564    0.0171   -9.9186 C.ar      1 <0>         0.1949
     30 C22         2.0105    0.3433   -9.0826 C.ar      1 <0>        -0.2775
     31 C23         3.1024    1.0355   -9.5890 C.ar      1 <0>         0.1803
     32 N5          3.1695    1.3954  -10.8497 N.ar      1 <0>        -0.5021
     33 C24         2.1871    1.1132  -11.7131 C.ar      1 <0>         0.1970
     34 C25         1.0420    0.4044  -11.2748 C.ar      1 <0>        -0.1488
     35 C26         0.0157    0.1049  -12.1833 C.ar      1 <0>        -0.0338
     36 C27         0.1275    0.4919  -13.4828 C.ar      1 <0>        -0.2017
     37 C28         1.2564    1.1869  -13.9278 C.ar      1 <0>         0.1577
     38 C29         2.2745    1.5061  -13.0586 C.ar      1 <0>        -0.1526
     39 O5          1.3437    1.5616  -15.2305 O.3       1 <0>        -0.3117
     40 C30         0.2496    1.2123  -16.0808 C.3       1 <0>         0.0241
     41 H1          0.8464    1.5883   -0.8577 H         1 <0>         0.1094
     42 H2         -0.7038    1.5996   -1.7323 H         1 <0>         0.1146
     43 H3         -0.6817    1.7444    0.0416 H         1 <0>         0.0788
     44 H4         -0.6908    0.6843    1.7638 H         1 <0>         0.1203
     45 H5         -0.8429   -0.9357    2.4853 H         1 <0>         0.1132
     46 H6          0.6645   -0.4275    4.3566 H         1 <0>         0.0704
     47 H7          2.2551    0.3143    4.0600 H         1 <0>         0.0709
     48 H8          0.7688    1.2502    3.7711 H         1 <0>         0.0713
     49 H9          1.7955   -1.9901    1.1727 H         1 <0>         0.0661
     50 H10         2.8546   -1.5779    2.5425 H         1 <0>         0.0661
     51 H11         1.2640   -2.3197    2.8391 H         1 <0>         0.0691
     52 H12         2.8457    0.7567    1.6846 H         1 <0>         0.3854
     53 H13        -1.9983   -2.3671    2.2836 H         1 <0>         0.1266
     54 H14        -2.0864   -4.1634    3.9636 H         1 <0>         0.1335
     55 H15        -0.5825   -6.1024    3.7755 H         1 <0>         0.1318
     56 H16         1.0120   -6.2522    1.9069 H         1 <0>         0.1351
     57 H17         1.1006   -4.4666    0.2155 H         1 <0>         0.1321
     58 H18        -0.4536   -2.6973   -3.8081 H         1 <0>         0.4281
     59 H19        -0.8933    0.5827   -5.1696 H         1 <0>         0.1844
     60 H20        -0.7840    1.1046   -7.5942 H         1 <0>         0.1456
     61 H21         0.3727   -2.9541   -8.2958 H         1 <0>         0.1689
     62 H22         1.9835    0.0608   -8.0406 H         1 <0>         0.1389
     63 H23         3.9189    1.2849   -8.9275 H         1 <0>         0.1631
     64 H24        -0.8608   -0.4320  -11.8520 H         1 <0>         0.1396
     65 H25        -0.6648    0.2594  -14.1790 H         1 <0>         0.1371
     66 H26         3.1421    2.0434  -13.4123 H         1 <0>         0.1469
     67 H27         0.1319    0.1288  -16.0949 H         1 <0>         0.0586
     68 H28        -0.6642    1.6721  -15.7044 H         1 <0>         0.0584
     69 H29         0.4464    1.5697  -17.0915 H         1 <0>         0.1037
@<TRIPOS>BOND
     1    1    2 1
     2    1   41 1
     3    1   42 1
     4    1   43 1
     5    2    7 1
     6    2    3 2
     7    3    4 1
     8    3   19 1
     9    4    5 2
    10    4    6 am
    11    6    7 1
    12    6   13 1
    13    7    8 1
    14    8    9 1
    15    8   44 1
    16    8   45 1
    17    9   10 1
    18    9   11 1
    19    9   12 1
    20   10   46 1
    21   10   47 1
    22   10   48 1
    23   11   49 1
    24   11   50 1
    25   11   51 1
    26   12   52 1
    27   13   18 ar
    28   13   14 ar
    29   14   15 ar
    30   14   53 1
    31   15   16 ar
    32   15   54 1
    33   16   17 ar
    34   16   55 1
    35   17   18 ar
    36   17   56 1
    37   18   57 1
    38   19   20 2
    39   19   21 am
    40   21   22 1
    41   21   58 1
    42   22   27 ar
    43   22   23 ar
    44   23   24 ar
    45   23   59 1
    46   24   25 ar
    47   24   60 1
    48   25   26 ar
    49   25   28 1
    50   26   27 ar
    51   26   61 1
    52   28   29 1
    53   29   34 ar
    54   29   30 ar
    55   30   31 ar
    56   30   62 1
    57   31   32 ar
    58   31   63 1
    59   32   33 ar
    60   33   38 ar
    61   33   34 ar
    62   34   35 ar
    63   35   36 ar
    64   35   64 1
    65   36   37 ar
    66   36   65 1
    67   37   38 ar
    68   37   39 1
    69   38   66 1
    70   39   40 1
    71   40   67 1
    72   40   68 1
    73   40   69 1
@<TRIPOS>MOLECULE
CHEMBL521887
   65    69     0     0     0
SMALL
USER_CHARGES

@<TRIPOS>ATOM
      1 C1          0.0022    1.5025    0.0564 C.3       1 <0>        -0.1206
      2 C2          0.0191   -0.0042    0.0305 C.ar      1 <0>        -0.0773
      3 C3         -0.5713   -0.7188    1.0539 C.ar      1 <0>        -0.0991
      4 C4         -0.5587   -2.1003    1.0343 C.ar      1 <0>        -0.1342
      5 C5          0.0484   -2.7786   -0.0160 C.ar      1 <0>         0.1322
      6 C6          0.6435   -2.0684   -1.0475 C.ar      1 <0>        -0.0997
      7 C7          0.6257   -0.6760   -1.0295 C.ar      1 <0>        -0.0336
      8 C8          1.2551    0.0903   -2.1330 C.ar      1 <0>        -0.0438
      9 C9          0.5389    1.1236   -2.7585 C.ar      1 <0>        -0.0817
     10 C10         1.0912    1.8417   -3.7719 C.ar      1 <0>        -0.1102
     11 C11         2.3949    1.5512   -4.2027 C.ar      1 <0>        -0.0216
     12 C12         3.0117    2.2648   -5.2463 C.ar      1 <0>        -0.1549
     13 C13         4.2799    1.9267   -5.6101 C.ar      1 <0>         0.0785
     14 N1          4.9436    0.9482   -5.0100 N.ar      1 <0>        -0.4868
     15 C14         4.4324    0.2404   -4.0302 C.ar      1 <0>         0.1474
     16 C15         3.1294    0.5091   -3.5780 C.ar      1 <0>        -0.1111
     17 C16         2.5432   -0.2164   -2.5314 C.ar      1 <0>        -0.0704
     18 N2          0.0595   -4.1771   -0.0321 N.am      1 <0>        -0.6668
     19 C17        -0.0391   -4.8384   -1.2024 C.2       1 <0>         0.5540
     20 O1         -0.0529   -4.2215   -2.2498 O.2       1 <0>        -0.5070
     21 C18        -0.1305   -6.3137   -1.2123 C.ar      1 <0>        -0.1229
     22 C19        -0.1206   -7.0247   -0.0111 C.ar      1 <0>        -0.0842
     23 C20        -0.2062   -8.4015   -0.0274 C.ar      1 <0>        -0.1243
     24 C21        -0.3011   -9.0776   -1.2309 C.ar      1 <0>        -0.0680
     25 C22        -0.3109   -8.3789   -2.4251 C.ar      1 <0>        -0.0990
     26 C23        -0.2327   -7.0016   -2.4226 C.ar      1 <0>        -0.0530
     27 C24        -0.3937  -10.5817   -1.2410 C.3       1 <0>         0.0935
     28 N3         -1.8048  -10.9858   -1.1829 N.3       1 <0>        -0.5346
     29 C25        -2.4070  -10.6123    0.1048 C.3       1 <0>         0.0185
     30 C26        -3.8884  -10.9960    0.1020 C.3       1 <0>        -0.0025
     31 N4         -4.0194  -12.4424   -0.1181 N.4       1 <0>        -0.3884
     32 C27        -3.4355  -12.7963   -1.4187 C.3       1 <0>        -0.0025
     33 C28        -1.9504  -12.4275   -1.4286 C.3       1 <0>         0.0250
     34 C29        -5.4408  -12.8130   -0.1027 C.3       1 <0>        -0.0460
     35 H1         -0.8941    1.8645   -0.4472 H         1 <0>         0.0738
     36 H2          0.0029    1.8481    1.0902 H         1 <0>         0.0696
     37 H3          0.8857    1.8846   -0.4550 H         1 <0>         0.0717
     38 H4         -1.0440   -0.1963    1.8724 H         1 <0>         0.1317
     39 H5         -1.0216   -2.6546    1.8374 H         1 <0>         0.1264
     40 H6          1.1162   -2.5935   -1.8644 H         1 <0>         0.1422
     41 H7         -0.4646    1.3507   -2.4302 H         1 <0>         0.1304
     42 H8          0.5284    2.6332   -4.2442 H         1 <0>         0.1351
     43 H9          2.4895    3.0652   -5.7496 H         1 <0>         0.1399
     44 H10         4.7586    2.4711   -6.4107 H         1 <0>         0.1551
     45 H11         5.0121   -0.5475   -3.5724 H         1 <0>         0.1631
     46 H12         3.0907   -1.0095   -2.0439 H         1 <0>         0.1336
     47 H13         0.1382   -4.6712    0.7989 H         1 <0>         0.4094
     48 H14        -0.0458   -6.4982    0.9289 H         1 <0>         0.1293
     49 H15        -0.1986   -8.9528    0.9012 H         1 <0>         0.1269
     50 H16        -0.3846   -8.9127   -3.3610 H         1 <0>         0.1344
     51 H17        -0.2454   -6.4571   -3.3552 H         1 <0>         0.1424
     52 H18         0.0573  -10.9673   -2.1553 H         1 <0>         0.1011
     53 H19         0.1354  -10.9841   -0.3771 H         1 <0>         0.0599
     54 H20        -1.8965  -11.1386    0.9113 H         1 <0>         0.0620
     55 H21        -2.3102   -9.5369    0.2533 H         1 <0>         0.1260
     56 H22        -4.3337  -10.7328    1.0615 H         1 <0>         0.1359
     57 H23        -4.4013  -10.4591   -0.6960 H         1 <0>         0.1378
     58 H24        -3.5450  -13.8677   -1.5866 H         1 <0>         0.1369
     59 H25        -3.9507  -12.2502   -2.2089 H         1 <0>         0.1381
     60 H26        -1.5203  -12.6764   -2.3987 H         1 <0>         0.1254
     61 H27        -1.4323  -12.9837   -0.6473 H         1 <0>         0.0623
     62 H28        -5.9649  -12.2761   -0.8933 H         1 <0>         0.1233
     63 H29        -5.5382  -13.8863   -0.2660 H         1 <0>         0.1247
     64 H30        -5.8739  -12.5517    0.8628 H         1 <0>         0.1243
     65 H31        -3.5347  -12.9391    0.6143 H         1 <0>         0.4223
@<TRIPOS>BOND
     1    1    2 1
     2    1   35 1
     3    1   36 1
     4    1   37 1
     5    2    7 ar
     6    2    3 ar
     7    3    4 ar
     8    3   38 1
     9    4    5 ar
    10    4   39 1
    11    5    6 ar
    12    5   18 1
    13    6    7 ar
    14    6   40 1
    15    7    8 1
    16    8   17 ar
    17    8    9 ar
    18    9   10 ar
    19    9   41 1
    20   10   11 ar
    21   10   42 1
    22   11   16 ar
    23   11   12 ar
    24   12   13 ar
    25   12   43 1
    26   13   14 ar
    27   13   44 1
    28   14   15 ar
    29   15   16 ar
    30   15   45 1
    31   16   17 ar
    32   17   46 1
    33   18   19 am
    34   18   47 1
    35   19   20 2
    36   19   21 1
    37   21   26 ar
    38   21   22 ar
    39   22   23 ar
    40   22   48 1
    41   23   24 ar
    42   23   49 1
    43   24   25 ar
    44   24   27 1
    45   25   26 ar
    46   25   50 1
    47   26   51 1
    48   27   28 1
    49   27   52 1
    50   27   53 1
    51   28   33 1
    52   28   29 1
    53   29   30 1
    54   29   54 1
    55   29   55 1
    56   30   31 1
    57   30   56 1
    58   30   57 1
    59   31   32 1
    60   31   34 1
    61   31   65 1
    62   32   33 1
    63   32   58 1
    64   32   59 1
    65   33   60 1
    66   33   61 1
    67   34   62 1
    68   34   63 1
    69   34   64 1
@<TRIPOS>MOLECULE
CHEMBL521887__1
   65    69     0     0     0
SMALL
USER_CHARGES

@<TRIPOS>ATOM
      1 C1          0.0022    1.5025    0.0564 C.3       1 <0>        -0.1220
      2 C2          0.0191   -0.0042    0.0305 C.ar      1 <0>        -0.0736
      3 C3         -0.5713   -0.7188    1.0539 C.ar      1 <0>        -0.0987
      4 C4         -0.5587   -2.1003    1.0343 C.ar      1 <0>        -0.1314
      5 C5          0.0484   -2.7786   -0.0160 C.ar      1 <0>         0.1268
      6 C6          0.6435   -2.0684   -1.0475 C.ar      1 <0>        -0.0988
      7 C7          0.6257   -0.6760   -1.0295 C.ar      1 <0>        -0.0330
      8 C8          1.2551    0.0903   -2.1330 C.ar      1 <0>        -0.0452
      9 C9          0.5389    1.1236   -2.7585 C.ar      1 <0>        -0.0824
     10 C10         1.0912    1.8417   -3.7719 C.ar      1 <0>        -0.1092
     11 C11         2.3949    1.5512   -4.2027 C.ar      1 <0>        -0.0213
     12 C12         3.0117    2.2648   -5.2463 C.ar      1 <0>        -0.1546
     13 C13         4.2799    1.9267   -5.6101 C.ar      1 <0>         0.0791
     14 N1          4.9436    0.9482   -5.0100 N.ar      1 <0>        -0.4862
     15 C14         4.4324    0.2404   -4.0302 C.ar      1 <0>         0.1470
     16 C15         3.1294    0.5091   -3.5780 C.ar      1 <0>        -0.1114
     17 C16         2.5432   -0.2164   -2.5314 C.ar      1 <0>        -0.0703
     18 N2          0.0595   -4.1771   -0.0321 N.am      1 <0>        -0.6623
     19 C17        -0.0391   -4.8384   -1.2024 C.2       1 <0>         0.5486
     20 O1         -0.0529   -4.2215   -2.2498 O.2       1 <0>        -0.4999
     21 C18        -0.1305   -6.3137   -1.2123 C.ar      1 <0>        -0.0951
     22 C19        -0.1206   -7.0247   -0.0111 C.ar      1 <0>        -0.0834
     23 C20        -0.2062   -8.4015   -0.0274 C.ar      1 <0>        -0.1008
     24 C21        -0.3011   -9.0776   -1.2309 C.ar      1 <0>        -0.1370
     25 C22        -0.3109   -8.3789   -2.4251 C.ar      1 <0>        -0.0963
     26 C23        -0.2327   -7.0016   -2.4226 C.ar      1 <0>        -0.0532
     27 C24        -0.3937  -10.5817   -1.2410 C.3       1 <0>         0.0421
     28 N3         -1.8048  -10.9858   -1.1829 N.4       1 <0>        -0.3857
     29 C25        -2.3809  -10.5680    0.1021 C.3       1 <0>        -0.0077
     30 C26        -3.8559  -10.9721    0.1554 C.3       1 <0>         0.0255
     31 N4         -3.9676  -12.4293   -0.0005 N.3       1 <0>        -0.5431
     32 C27        -3.3725  -12.8654   -1.2716 C.3       1 <0>         0.0239
     33 C28        -1.9015  -12.4457   -1.3132 C.3       1 <0>        -0.0024
     34 C29        -5.3671  -12.8639    0.1021 C.3       1 <0>         0.0192
     35 H1         -0.8941    1.8645   -0.4472 H         1 <0>         0.0750
     36 H2          0.0029    1.8481    1.0902 H         1 <0>         0.0707
     37 H3          0.8857    1.8846   -0.4550 H         1 <0>         0.0725
     38 H4         -1.0440   -0.1963    1.8724 H         1 <0>         0.1332
     39 H5         -1.0216   -2.6546    1.8374 H         1 <0>         0.1275
     40 H6          1.1162   -2.5935   -1.8644 H         1 <0>         0.1417
     41 H7         -0.4646    1.3507   -2.4302 H         1 <0>         0.1306
     42 H8          0.5284    2.6332   -4.2442 H         1 <0>         0.1356
     43 H9          2.4895    3.0652   -5.7496 H         1 <0>         0.1404
     44 H10         4.7586    2.4711   -6.4107 H         1 <0>         0.1556
     45 H11         5.0121   -0.5475   -3.5724 H         1 <0>         0.1630
     46 H12         3.0907   -1.0095   -2.0439 H         1 <0>         0.1332
     47 H13         0.1382   -4.6712    0.7989 H         1 <0>         0.4101
     48 H14        -0.0458   -6.4982    0.9289 H         1 <0>         0.1398
     49 H15        -0.1986   -8.9528    0.9012 H         1 <0>         0.1410
     50 H16        -0.3846   -8.9127   -3.3610 H         1 <0>         0.1414
     51 H17        -0.2454   -6.4571   -3.3552 H         1 <0>         0.1513
     52 H18         0.0573  -10.9673   -2.1553 H         1 <0>         0.1415
     53 H19         0.1354  -10.9841   -0.3771 H         1 <0>         0.1406
     54 H20        -1.8419  -11.0521    0.9165 H         1 <0>         0.1387
     55 H21        -2.2968   -9.4860    0.2033 H         1 <0>         0.1347
     56 H22        -4.2798  -10.6754    1.1148 H         1 <0>         0.1236
     57 H23        -4.3979  -10.4775   -0.6506 H         1 <0>         0.0600
     58 H24        -3.4437  -13.9500   -1.3533 H         1 <0>         0.1250
     59 H25        -3.9065  -12.4019   -2.1011 H         1 <0>         0.0606
     60 H26        -1.4619  -12.7557   -2.2612 H         1 <0>         0.1374
     61 H27        -1.3650  -12.9201   -0.4916 H         1 <0>         0.1394
     62 H28        -5.9552  -12.3827   -0.6793 H         1 <0>         0.0396
     63 H29        -5.4211  -13.9461   -0.0168 H         1 <0>         0.0844
     64 H30        -5.7634  -12.5855    1.0786 H         1 <0>         0.0845
     65 H31        -2.3115  -10.5467   -1.9369 H         1 <0>         0.4206
@<TRIPOS>BOND
     1    1    2 1
     2    1   35 1
     3    1   36 1
     4    1   37 1
     5    2    7 ar
     6    2    3 ar
     7    3    4 ar
     8    3   38 1
     9    4    5 ar
    10    4   39 1
    11    5    6 ar
    12    5   18 1
    13    6    7 ar
    14    6   40 1
    15    7    8 1
    16    8   17 ar
    17    8    9 ar
    18    9   10 ar
    19    9   41 1
    20   10   11 ar
    21   10   42 1
    22   11   16 ar
    23   11   12 ar
    24   12   13 ar
    25   12   43 1
    26   13   14 ar
    27   13   44 1
    28   14   15 ar
    29   15   16 ar
    30   15   45 1
    31   16   17 ar
    32   17   46 1
    33   18   19 am
    34   18   47 1
    35   19   20 2
    36   19   21 1
    37   21   26 ar
    38   21   22 ar
    39   22   23 ar
    40   22   48 1
    41   23   24 ar
    42   23   49 1
    43   24   25 ar
    44   24   27 1
    45   25   26 ar
    46   25   50 1
    47   26   51 1
    48   27   28 1
    49   27   52 1
    50   27   53 1
    51   28   33 1
    52   28   29 1
    53   28   65 1
    54   29   30 1
    55   29   54 1
    56   29   55 1
    57   30   31 1
    58   30   56 1
    59   30   57 1
    60   31   32 1
    61   31   34 1
    62   32   33 1
    63   32   58 1
    64   32   59 1
    65   33   60 1
    66   33   61 1
    67   34   62 1
    68   34   63 1
    69   34   64 1
@<TRIPOS>MOLECULE
CHEMBL258461
   52    55     0     0     0
SMALL
USER_CHARGES

@<TRIPOS>ATOM
      1 C1         -2.0092    0.6813    0.5369 C.3       1 <0>        -0.1004
      2 C2         -0.9018   -0.3015    0.2564 C.2       1 <0>        -0.0912
      3 C3         -0.8201   -0.9384   -0.9629 C.2       1 <0>        -0.1605
      4 C4          0.1900   -1.8182   -1.1832 C.2       1 <0>        -0.1554
      5 S1          1.0748   -1.7682    0.3664 S.3       1 <0>         0.0599
      6 C5          0.0462   -0.5748    1.2063 C.2       1 <0>        -0.1459
      7 C6          0.1812   -0.0264    2.5717 C.ar      1 <0>         0.0282
      8 C7          0.0771    1.3473    2.7882 C.ar      1 <0>        -0.1465
      9 C8          0.2048    1.8551    4.0714 C.ar      1 <0>         0.1898
     10 C9          0.4365    0.9982    5.1415 C.ar      1 <0>        -0.1582
     11 C10         0.5410   -0.3634    4.9338 C.ar      1 <0>        -0.0693
     12 C11         0.4086   -0.8851    3.6557 C.ar      1 <0>         0.1233
     13 N1          0.5080   -2.2646    3.4482 N.am      1 <0>        -0.6579
     14 C12         1.3328   -3.0039    4.2159 C.2       1 <0>         0.6102
     15 O1          1.9244   -2.4877    5.1455 O.2       1 <0>        -0.4910
     16 C13         1.5178   -4.4338    3.9304 C.2       1 <0>        -0.0492
     17 C14         2.3177   -5.2906    4.6331 C.2       1 <0>        -0.1073
     18 C15         2.2017   -6.5473    4.0289 C.2       1 <0>        -0.1295
     19 C16         1.3283   -6.4027    2.9737 C.2       1 <0>         0.0852
     20 O2          0.9231   -5.1200    2.9361 O.3       1 <0>        -0.1437
     21 C17         0.9176   -7.4396    2.0755 C.1       1 <0>         0.2763
     22 N2          0.5918   -8.2623    1.3630 N.1       1 <0>        -0.3492
     23 N3          0.1007    3.2329    4.2903 N.pl3     1 <0>        -0.6438
     24 C18         0.3537    3.8087    5.6202 C.3       1 <0>         0.1000
     25 C19         1.3445    4.9675    5.4673 C.3       1 <0>        -0.0237
     26 N4          0.8282    5.9247    4.4807 N.4       1 <0>        -0.3836
     27 C20         0.7556    5.2899    3.1586 C.3       1 <0>        -0.0236
     28 C21        -0.2588    4.1477    3.1958 C.3       1 <0>         0.0980
     29 C22         1.7229    7.0879    4.4149 C.3       1 <0>        -0.0472
     30 H1         -1.6596    1.6922    0.3272 H         1 <0>         0.0666
     31 H2         -2.8659    0.4542   -0.0976 H         1 <0>         0.0700
     32 H3         -2.3031    0.6084    1.5840 H         1 <0>         0.0688
     33 H4         -1.5506   -0.7404   -1.7333 H         1 <0>         0.1399
     34 H5          0.4034   -2.3990   -2.0684 H         1 <0>         0.1911
     35 H6         -0.1021    2.0140    1.9576 H         1 <0>         0.1322
     36 H7          0.5356    1.3990    6.1395 H         1 <0>         0.1317
     37 H8          0.7214   -1.0235    5.7693 H         1 <0>         0.1542
     38 H9         -0.0168   -2.6893    2.7516 H         1 <0>         0.4184
     39 H10         2.9247   -5.0442    5.4918 H         1 <0>         0.1784
     40 H11         2.7010   -7.4558    4.3316 H         1 <0>         0.1782
     41 H12        -0.5804    4.1788    6.0428 H         1 <0>         0.0891
     42 H13         0.7787    3.0473    6.2742 H         1 <0>         0.1277
     43 H14         1.4699    5.4675    6.4277 H         1 <0>         0.1415
     44 H15         2.3063    4.5812    5.1301 H         1 <0>         0.1330
     45 H16         0.4472    6.0275    2.4177 H         1 <0>         0.1412
     46 H17         1.7353    4.8939    2.8913 H         1 <0>         0.1326
     47 H18        -0.2386    3.6103    2.2477 H         1 <0>         0.1254
     48 H19        -1.2558    4.5526    3.3694 H         1 <0>         0.0890
     49 H20         2.7204    6.7628    4.1193 H         1 <0>         0.1217
     50 H21         1.3408    7.7993    3.6828 H         1 <0>         0.1250
     51 H22         1.7714    7.5648    5.3939 H         1 <0>         0.1254
     52 H23        -0.0934    6.2276    4.7580 H         1 <0>         0.4248
@<TRIPOS>BOND
     1    1    2 1
     2    1   30 1
     3    1   31 1
     4    1   32 1
     5    2    6 2
     6    2    3 1
     7    3    4 2
     8    3   33 1
     9    4    5 1
    10    4   34 1
    11    5    6 1
    12    6    7 1
    13    7   12 ar
    14    7    8 ar
    15    8    9 ar
    16    8   35 1
    17    9   10 ar
    18    9   23 1
    19   10   11 ar
    20   10   36 1
    21   11   12 ar
    22   11   37 1
    23   12   13 1
    24   13   14 am
    25   13   38 1
    26   14   15 2
    27   14   16 1
    28   16   20 1
    29   16   17 2
    30   17   18 1
    31   17   39 1
    32   18   19 2
    33   18   40 1
    34   19   20 1
    35   19   21 1
    36   21   22 3
    37   23   28 1
    38   23   24 1
    39   24   25 1
    40   24   41 1
    41   24   42 1
    42   25   26 1
    43   25   43 1
    44   25   44 1
    45   26   27 1
    46   26   29 1
    47   26   52 1
    48   27   28 1
    49   27   45 1
    50   27   46 1
    51   28   47 1
    52   28   48 1
    53   29   49 1
    54   29   50 1
    55   29   51 1
@<TRIPOS>MOLECULE
CHEMBL258461__1
   51    54     0     0     0
SMALL
USER_CHARGES

@<TRIPOS>ATOM
      1 C1         -1.9994    0.7070    0.5543 C.3       1 <0>        -0.0999
      2 C2         -0.8959   -0.2787    0.2679 C.2       1 <0>        -0.1014
      3 C3         -0.8173   -0.9092   -0.9549 C.2       1 <0>        -0.1536
      4 C4          0.1892   -1.7917   -1.1805 C.2       1 <0>        -0.1687
      5 S1          1.0748   -1.7538    0.3690 S.3       1 <0>         0.0482
      6 C5          0.0513   -0.5609    1.2158 C.2       1 <0>        -0.1234
      7 C6          0.1891   -0.0206    2.5842 C.ar      1 <0>         0.0247
      8 C7          0.0903    1.3523    2.8083 C.ar      1 <0>        -0.1595
      9 C8          0.2205    1.8526    4.0942 C.ar      1 <0>         0.2176
     10 C9          0.4495    0.9889    5.1594 C.ar      1 <0>        -0.1726
     11 C10         0.5489   -0.3718    4.9442 C.ar      1 <0>        -0.0645
     12 C11         0.4138   -0.8861    3.6634 C.ar      1 <0>         0.0942
     13 N1          0.5080   -2.2648    3.4481 N.am      1 <0>        -0.6513
     14 C12         1.3305   -3.0113    4.2114 C.2       1 <0>         0.6029
     15 O1          1.9246   -2.5024    5.1433 O.2       1 <0>        -0.4915
     16 C13         1.5099   -4.4403    3.9180 C.2       1 <0>        -0.0368
     17 C14         2.3069   -5.3039    4.6156 C.2       1 <0>        -0.1161
     18 C15         2.1858   -6.5569    4.0046 C.2       1 <0>        -0.1281
     19 C16         1.3122   -6.4033    2.9507 C.2       1 <0>         0.0742
     20 O2          0.9119   -5.1189    2.9203 O.3       1 <0>        -0.1423
     21 C17         0.8970   -7.4338    2.0472 C.1       1 <0>         0.2821
     22 N2          0.5676   -8.2513    1.3305 N.1       1 <0>        -0.3583
     23 N3          0.1216    3.2295    4.3208 N.pl3     1 <0>        -0.6287
     24 C18         0.3778    3.7955    5.6539 C.3       1 <0>         0.1257
     25 C19         1.3874    4.9395    5.5113 C.3       1 <0>         0.0378
     26 N4          0.8974    5.8991    4.5128 N.3       1 <0>        -0.5421
     27 C20         0.7926    5.2796    3.1849 C.3       1 <0>         0.0376
     28 C21        -0.2353    4.1503    3.2308 C.3       1 <0>         0.1251
     29 C22         1.7490    7.0953    4.4699 C.3       1 <0>         0.0242
     30 H1         -1.6458    1.7176    0.3500 H         1 <0>         0.0693
     31 H2         -2.8572    0.4867   -0.0811 H         1 <0>         0.0661
     32 H3         -2.2931    0.6295    1.6011 H         1 <0>         0.0704
     33 H4         -1.5474   -0.7041   -1.7239 H         1 <0>         0.1367
     34 H5          0.3999   -2.3685   -2.0690 H         1 <0>         0.1873
     35 H6         -0.0870    2.0242    1.9815 H         1 <0>         0.1319
     36 H7          0.5506    1.3839    6.1595 H         1 <0>         0.1311
     37 H8          0.7273   -1.0373    5.7759 H         1 <0>         0.1478
     38 H9         -0.0188   -2.6836    2.7496 H         1 <0>         0.4143
     39 H10         2.9154   -5.0645    5.4751 H         1 <0>         0.1775
     40 H11         2.6818   -7.4690    4.3021 H         1 <0>         0.1758
     41 H12        -0.5522    4.1782    6.0741 H         1 <0>         0.0722
     42 H13         0.7878    3.0246    6.3064 H         1 <0>         0.0881
     43 H14         1.5057    5.4420    6.4712 H         1 <0>         0.0869
     44 H15         2.3484    4.5384    5.1893 H         1 <0>         0.0393
     45 H16         0.4796    6.0288    2.4577 H         1 <0>         0.0864
     46 H17         1.7619    4.8738    2.8953 H         1 <0>         0.0385
     47 H18        -0.2306    3.6138    2.2820 H         1 <0>         0.0856
     48 H19        -1.2255    4.5677    3.4136 H         1 <0>         0.0721
     49 H20         2.7670    6.8073    4.2078 H         1 <0>         0.0261
     50 H21         1.3637    7.7890    3.7226 H         1 <0>         0.0703
     51 H22         1.7481    7.5771    5.4476 H         1 <0>         0.0710
@<TRIPOS>BOND
     1    1    2 1
     2    1   30 1
     3    1   31 1
     4    1   32 1
     5    2    6 2
     6    2    3 1
     7    3    4 2
     8    3   33 1
     9    4    5 1
    10    4   34 1
    11    5    6 1
    12    6    7 1
    13    7   12 ar
    14    7    8 ar
    15    8    9 ar
    16    8   35 1
    17    9   10 ar
    18    9   23 1
    19   10   11 ar
    20   10   36 1
    21   11   12 ar
    22   11   37 1
    23   12   13 1
    24   13   14 am
    25   13   38 1
    26   14   15 2
    27   14   16 1
    28   16   20 1
    29   16   17 2
    30   17   18 1
    31   17   39 1
    32   18   19 2
    33   18   40 1
    34   19   20 1
    35   19   21 1
    36   21   22 3
    37   23   28 1
    38   23   24 1
    39   24   25 1
    40   24   41 1
    41   24   42 1
    42   25   26 1
    43   25   43 1
    44   25   44 1
    45   26   27 1
    46   26   29 1
    47   27   28 1
    48   27   45 1
    49   27   46 1
    50   28   47 1
    51   28   48 1
    52   29   49 1
    53   29   50 1
    54   29   51 1
@<TRIPOS>MOLECULE
CHEMBL481423
   56    59     0     0     0
SMALL
USER_CHARGES

@<TRIPOS>ATOM
      1 C1         -8.1790   -4.8438   -3.7170 C.3       1 <0>        -0.0477
      2 N1         -6.8874   -5.2687   -3.1609 N.4       1 <0>        -0.3829
      3 C2         -7.0886   -6.4432   -2.3029 C.3       1 <0>        -0.0231
      4 C3         -5.7300   -6.9563   -1.8144 C.3       1 <0>         0.1170
      5 N2         -5.0177   -5.8449   -1.1652 N.pl3     1 <0>        -0.6732
      6 C4         -4.9114   -4.5706   -1.8925 C.3       1 <0>         0.1183
      7 C5         -6.3087   -4.1701   -2.3773 C.3       1 <0>        -0.0236
      8 C6         -4.4576   -5.9954    0.1081 C.ar      1 <0>         0.1542
      9 C7         -3.1989   -6.5371    0.2420 C.ar      1 <0>        -0.0072
     10 C8         -2.6393   -6.6870    1.5191 C.ar      1 <0>        -0.1273
     11 C9         -3.3686   -6.2821    2.6630 C.ar      1 <0>         0.2038
     12 C10        -4.6496   -5.7332    2.5014 C.ar      1 <0>        -0.2488
     13 C11        -5.1800   -5.5880    1.2402 C.ar      1 <0>         0.2226
     14 O1         -6.4182   -5.0500    1.0896 O.3       1 <0>        -0.2888
     15 C12        -7.1030   -4.6548    2.2800 C.3       1 <0>         0.0084
     16 N3         -2.8373   -6.4227    3.8871 N.ar      1 <0>        -0.4663
     17 C13        -1.6460   -6.9300    4.0724 C.ar      1 <0>         0.2489
     18 C14        -0.8524   -7.3580    2.9957 C.ar      1 <0>        -0.2096
     19 C15        -1.3480   -7.2398    1.6881 C.ar      1 <0>         0.4036
     20 N4         -0.6005   -7.6482    0.6035 N.pl3     1 <0>        -0.7012
     21 C16         0.2426   -6.7415   -0.0455 C.ar      1 <0>         0.2189
     22 C17         0.4197   -5.4638    0.4707 C.ar      1 <0>        -0.1710
     23 C18         1.2530   -4.5698   -0.1720 C.ar      1 <0>        -0.0506
     24 C19         1.9120   -4.9449   -1.3296 C.ar      1 <0>        -0.0650
     25 C20         1.7374   -6.2176   -1.8471 C.ar      1 <0>         0.0137
     26 C21         0.9091   -7.1183   -1.2041 C.ar      1 <0>        -0.1431
     27 Cl1         2.5653   -6.6845   -3.2998 Cl        1 <0>        -0.0227
     28 Cl2         2.9588   -3.8182   -2.1348 Cl        1 <0>        -0.0310
     29 C22         0.4845   -7.9239    3.2360 C.2       1 <0>         0.5657
     30 O2          1.1999   -8.2145    2.2961 O.2       1 <0>        -0.4838
     31 N5          0.9164   -8.1203    4.4975 N.am      1 <0>        -0.8391
     32 H1         -8.0299   -3.9768   -4.3605 H         1 <0>         0.1273
     33 H2         -8.6098   -5.6585   -4.2990 H         1 <0>         0.1272
     34 H3         -8.8557   -4.5807   -2.9040 H         1 <0>         0.1219
     35 H4         -7.7021   -6.1662   -1.4456 H         1 <0>         0.1331
     36 H5         -7.5902   -7.2267   -2.8709 H         1 <0>         0.1419
     37 H6         -5.8796   -7.7639   -1.0978 H         1 <0>         0.1160
     38 H7         -5.1487   -7.3183   -2.6625 H         1 <0>         0.0902
     39 H8         -4.5199   -3.8009   -1.2274 H         1 <0>         0.1158
     40 H9         -4.2475   -4.6916   -2.7484 H         1 <0>         0.0906
     41 H10        -6.2356   -3.2785   -3.0001 H         1 <0>         0.1418
     42 H11        -6.9458   -3.9618   -1.5177 H         1 <0>         0.1340
     43 H12        -2.6452   -6.8454   -0.6325 H         1 <0>         0.1720
     44 H13        -5.2166   -5.4202    3.3656 H         1 <0>         0.1701
     45 H14        -7.2371   -5.5218    2.9268 H         1 <0>         0.0734
     46 H15        -6.5168   -3.8989    2.8025 H         1 <0>         0.0737
     47 H16        -8.0775   -4.2423    2.0186 H         1 <0>         0.1223
     48 H17        -1.2631   -7.0216    5.0781 H         1 <0>         0.2177
     49 H18        -0.6599   -8.5645    0.2909 H         1 <0>         0.4362
     50 H19        -0.0944   -5.1699    1.3738 H         1 <0>         0.1212
     51 H20         1.3904   -3.5764    0.2290 H         1 <0>         0.1487
     52 H21         0.7770   -8.1125   -1.6048 H         1 <0>         0.1495
     53 H22         0.3459   -7.8885    5.2470 H         1 <0>         0.3988
     54 H23         1.7977   -8.4933    4.6559 H         1 <0>         0.4263
     55 H24        -6.2610   -5.5091   -3.9145 H         1 <0>         0.4260
     56 H25        -3.3525   -6.1390    4.6585 H         1 <0>         0.4554
@<TRIPOS>BOND
     1    1    2 1
     2    1   32 1
     3    1   33 1
     4    1   34 1
     5    2    7 1
     6    2    3 1
     7    2   55 1
     8    3    4 1
     9    3   35 1
    10    3   36 1
    11    4    5 1
    12    4   37 1
    13    4   38 1
    14    5    6 1
    15    5    8 1
    16    6    7 1
    17    6   39 1
    18    6   40 1
    19    7   41 1
    20    7   42 1
    21    8   13 ar
    22    8    9 ar
    23    9   10 ar
    24    9   43 1
    25   10   19 ar
    26   10   11 ar
    27   11   12 ar
    28   11   16 ar
    29   12   13 ar
    30   12   44 1
    31   13   14 1
    32   14   15 1
    33   15   45 1
    34   15   46 1
    35   15   47 1
    36   16   17 ar
    37   16   56 1
    38   17   18 ar
    39   17   48 1
    40   18   19 ar
    41   18   29 1
    42   19   20 1
    43   20   21 1
    44   20   49 1
    45   21   26 ar
    46   21   22 ar
    47   22   23 ar
    48   22   50 1
    49   23   24 ar
    50   23   51 1
    51   24   25 ar
    52   24   28 1
    53   25   26 ar
    54   25   27 1
    55   26   52 1
    56   29   30 2
    57   29   31 am
    58   31   53 1
    59   31   54 1
@<TRIPOS>MOLECULE
CHEMBL481423__1
   55    58     0     0     0
SMALL
USER_CHARGES

@<TRIPOS>ATOM
      1 C1         -8.1790   -4.8438   -3.7170 C.3       1 <0>        -0.0460
      2 N1         -6.8874   -5.2687   -3.1609 N.4       1 <0>        -0.3817
      3 C2         -7.0886   -6.4432   -2.3029 C.3       1 <0>        -0.0227
      4 C3         -5.7300   -6.9563   -1.8144 C.3       1 <0>         0.1202
      5 N2         -5.0177   -5.8449   -1.1652 N.pl3     1 <0>        -0.6663
      6 C4         -4.9114   -4.5706   -1.8925 C.3       1 <0>         0.1215
      7 C5         -6.3087   -4.1701   -2.3773 C.3       1 <0>        -0.0231
      8 C6         -4.4576   -5.9954    0.1081 C.ar      1 <0>         0.1309
      9 C7         -3.1989   -6.5371    0.2420 C.ar      1 <0>        -0.0343
     10 C8         -2.6393   -6.6870    1.5191 C.ar      1 <0>        -0.1408
     11 C9         -3.3686   -6.2821    2.6630 C.ar      1 <0>         0.1940
     12 C10        -4.6496   -5.7332    2.5014 C.ar      1 <0>        -0.1946
     13 C11        -5.1800   -5.5880    1.2402 C.ar      1 <0>         0.1561
     14 O1         -6.4182   -5.0500    1.0896 O.3       1 <0>        -0.3113
     15 C12        -7.1030   -4.6548    2.2800 C.3       1 <0>         0.0184
     16 N3         -2.8373   -6.4227    3.8871 N.ar      1 <0>        -0.4767
     17 C13        -1.6460   -6.9300    4.0724 C.ar      1 <0>         0.1867
     18 C14        -0.8524   -7.3580    2.9957 C.ar      1 <0>        -0.2112
     19 C15        -1.3480   -7.2398    1.6881 C.ar      1 <0>         0.2913
     20 N4         -0.6005   -7.6482    0.6035 N.pl3     1 <0>        -0.6863
     21 C16         0.2426   -6.7415   -0.0455 C.ar      1 <0>         0.2445
     22 C17         0.4197   -5.4638    0.4707 C.ar      1 <0>        -0.1695
     23 C18         1.2530   -4.5698   -0.1720 C.ar      1 <0>        -0.0508
     24 C19         1.9120   -4.9449   -1.3296 C.ar      1 <0>        -0.0796
     25 C20         1.7374   -6.2176   -1.8471 C.ar      1 <0>         0.0161
     26 C21         0.9091   -7.1183   -1.2041 C.ar      1 <0>        -0.1615
     27 Cl1         2.5653   -6.6845   -3.2998 Cl        1 <0>        -0.0410
     28 Cl2         2.9588   -3.8182   -2.1348 Cl        1 <0>        -0.0494
     29 C22         0.4845   -7.9239    3.2360 C.2       1 <0>         0.5652
     30 O2          1.1999   -8.2145    2.2961 O.2       1 <0>        -0.5160
     31 N5          0.9164   -8.1203    4.4975 N.am      1 <0>        -0.8473
     32 H1         -8.0299   -3.9768   -4.3605 H         1 <0>         0.1237
     33 H2         -8.6098   -5.6585   -4.2990 H         1 <0>         0.1235
     34 H3         -8.8557   -4.5807   -2.9040 H         1 <0>         0.1205
     35 H4         -7.7021   -6.1662   -1.4456 H         1 <0>         0.1328
     36 H5         -7.5902   -7.2267   -2.8709 H         1 <0>         0.1356
     37 H6         -5.8796   -7.7639   -1.0978 H         1 <0>         0.1141
     38 H7         -5.1487   -7.3183   -2.6625 H         1 <0>         0.0804
     39 H8         -4.5199   -3.8009   -1.2274 H         1 <0>         0.1143
     40 H9         -4.2475   -4.6916   -2.7484 H         1 <0>         0.0808
     41 H10        -6.2356   -3.2785   -3.0001 H         1 <0>         0.1356
     42 H11        -6.9458   -3.9618   -1.5177 H         1 <0>         0.1339
     43 H12        -2.6452   -6.8454   -0.6325 H         1 <0>         0.1453
     44 H13        -5.2166   -5.4202    3.3656 H         1 <0>         0.1514
     45 H14        -7.2371   -5.5218    2.9268 H         1 <0>         0.0645
     46 H15        -6.5168   -3.8989    2.8025 H         1 <0>         0.0648
     47 H16        -8.0775   -4.2423    2.0186 H         1 <0>         0.1057
     48 H17        -1.2631   -7.0216    5.0781 H         1 <0>         0.1699
     49 H18        -0.6599   -8.5645    0.2909 H         1 <0>         0.4207
     50 H19        -0.0944   -5.1699    1.3738 H         1 <0>         0.1264
     51 H20         1.3904   -3.5764    0.2290 H         1 <0>         0.1428
     52 H21         0.7770   -8.1125   -1.6048 H         1 <0>         0.1425
     53 H22         0.3459   -7.8885    5.2470 H         1 <0>         0.4009
     54 H23         1.7977   -8.4933    4.6559 H         1 <0>         0.4122
     55 H24        -6.2610   -5.5091   -3.9145 H         1 <0>         0.4232
@<TRIPOS>BOND
     1    1    2 1
     2    1   32 1
     3    1   33 1
     4    1   34 1
     5    2    7 1
     6    2    3 1
     7    2   55 1
     8    3    4 1
     9    3   35 1
    10    3   36 1
    11    4    5 1
    12    4   37 1
    13    4   38 1
    14    5    6 1
    15    5    8 1
    16    6    7 1
    17    6   39 1
    18    6   40 1
    19    7   41 1
    20    7   42 1
    21    8   13 ar
    22    8    9 ar
    23    9   10 ar
    24    9   43 1
    25   10   19 ar
    26   10   11 ar
    27   11   12 ar
    28   11   16 ar
    29   12   13 ar
    30   12   44 1
    31   13   14 1
    32   14   15 1
    33   15   45 1
    34   15   46 1
    35   15   47 1
    36   16   17 ar
    37   17   18 ar
    38   17   48 1
    39   18   19 ar
    40   18   29 1
    41   19   20 1
    42   20   21 1
    43   20   49 1
    44   21   26 ar
    45   21   22 ar
    46   22   23 ar
    47   22   50 1
    48   23   24 ar
    49   23   51 1
    50   24   25 ar
    51   24   28 1
    52   25   26 ar
    53   25   27 1
    54   26   52 1
    55   29   30 2
    56   29   31 am
    57   31   53 1
    58   31   54 1
@<TRIPOS>MOLECULE
CHEMBL245377
   68    73     0     0     0
SMALL
USER_CHARGES

@<TRIPOS>ATOM
      1 C1          2.4714    0.2418   -1.4362 C.3       1 <0>        -0.0458
      2 N1          1.8711   -1.0651   -1.1368 N.4       1 <0>        -0.3892
      3 C2          0.4398   -0.8931   -0.8549 C.3       1 <0>        -0.0014
      4 C3         -0.1899   -2.2565   -0.5614 C.3       1 <0>         0.0261
      5 N2          0.4846   -2.8661    0.5933 N.3       1 <0>        -0.5228
      6 C4          1.9231   -3.0217    0.3352 C.3       1 <0>         0.0180
      7 C5          2.5355   -1.6520    0.0343 C.3       1 <0>         0.0002
      8 C6         -0.1299   -4.1539    0.9425 C.3       1 <0>         0.0361
      9 C7          0.4165   -4.6293    2.2640 C.2       1 <0>         0.5147
     10 O1          1.2372   -3.9612    2.8566 O.2       1 <0>        -0.5053
     11 N3         -0.0067   -5.7970    2.7874 N.am      1 <0>        -0.6655
     12 C8          0.5680   -6.2844    3.9666 C.ar      1 <0>         0.1530
     13 C9          0.9772   -5.4005    4.9583 C.ar      1 <0>        -0.1040
     14 C10         1.5445   -5.8822    6.1225 C.ar      1 <0>        -0.1018
     15 C11         1.7081   -7.2400    6.3078 C.ar      1 <0>        -0.0899
     16 C12         1.3000   -8.1363    5.3181 C.ar      1 <0>         0.0025
     17 C13         0.7245   -7.6487    4.1496 C.ar      1 <0>        -0.1003
     18 C14         0.3796   -8.8309    3.2773 C.3       1 <0>         0.0099
     19 C15         0.8016  -10.0572    4.0478 C.2       1 <0>        -0.2361
     20 C16         1.3583   -9.6193    5.2608 C.2       1 <0>         0.0943
     21 N4          1.7362  -10.6837    5.9432 N.2       1 <0>        -0.2468
     22 N5          1.4489  -11.8239    5.1831 N.pl3     1 <0>        -0.4574
     23 H1          1.6227  -12.7419    5.4437 H         1 <0>         0.4476
     24 C17         0.8603  -11.4176    4.0219 C.2       1 <0>         0.1718
     25 C18         0.3943  -12.2935    2.9232 C.2       1 <0>        -0.0723
     26 C19        -0.3571  -13.4285    3.1924 C.2       1 <0>        -0.1185
     27 C20        -0.7664  -14.2089    2.1457 C.2       1 <0>        -0.0448
     28 S1         -0.0879  -13.3421    0.7408 S.3       1 <0>         0.1214
     29 C21         0.6913  -11.9973    1.6183 C.2       1 <0>        -0.1402
     30 C22        -1.5403  -15.4135    2.1710 C.1       1 <0>        -0.0802
     31 C23        -2.1748  -16.4011    2.1917 C.1       1 <0>        -0.1162
     32 C24        -2.9704  -17.6393    2.2177 C.3       1 <0>         0.1752
     33 O2         -3.1581  -18.1130    0.8826 O.3       1 <0>        -0.3107
     34 C25        -3.8771  -19.2559    0.7289 C.ar      1 <0>         0.1254
     35 C26        -4.3962  -19.9050    1.8397 C.ar      1 <0>        -0.2095
     36 C27        -5.1270  -21.0664    1.6807 C.ar      1 <0>        -0.0789
     37 C28        -5.3410  -21.5823    0.4159 C.ar      1 <0>        -0.1539
     38 C29        -4.8243  -20.9375   -0.6928 C.ar      1 <0>        -0.0789
     39 C30        -4.0980  -19.7725   -0.5396 C.ar      1 <0>        -0.1485
     40 H2          3.5333    0.1142   -1.6467 H         1 <0>         0.1243
     41 H3          1.9785    0.6775   -2.3053 H         1 <0>         0.1241
     42 H4          2.3479    0.9034   -0.5788 H         1 <0>         0.1236
     43 H5          0.3157   -0.2417    0.0102 H         1 <0>         0.1391
     44 H6         -0.0496   -0.4454   -1.7199 H         1 <0>         0.1375
     45 H7         -1.2488   -2.1274   -0.3376 H         1 <0>         0.1259
     46 H8         -0.0780   -2.9037   -1.4314 H         1 <0>         0.0631
     47 H9          2.4058   -3.4510    1.2133 H         1 <0>         0.1400
     48 H10         2.0699   -3.6815   -0.5199 H         1 <0>         0.0577
     49 H11         3.5997   -1.7670   -0.1714 H         1 <0>         0.1362
     50 H12         2.4005   -0.9968    0.8949 H         1 <0>         0.1400
     51 H13        -1.2104   -4.0320    1.0188 H         1 <0>         0.1221
     52 H14         0.0993   -4.8873    0.1695 H         1 <0>         0.0812
     53 H15        -0.7096   -6.2996    2.3466 H         1 <0>         0.4133
     54 H16         0.8520   -4.3369    4.8187 H         1 <0>         0.1456
     55 H17         1.8617   -5.1929    6.8910 H         1 <0>         0.1358
     56 H18         2.1529   -7.6098    7.2198 H         1 <0>         0.1319
     57 H19        -0.6937   -8.8574    3.0889 H         1 <0>         0.0923
     58 H20         0.9250   -8.7737    2.3354 H         1 <0>         0.0896
     59 H21        -0.6136  -13.6910    4.2081 H         1 <0>         0.1424
     60 H22         1.2539  -11.1646    1.2226 H         1 <0>         0.1960
     61 H23        -2.4460  -18.3959    2.8013 H         1 <0>         0.0967
     62 H24        -3.9407  -17.4382    2.6717 H         1 <0>         0.0966
     63 H25        -4.2287  -19.5028    2.8279 H         1 <0>         0.1292
     64 H26        -5.5314  -21.5721    2.5451 H         1 <0>         0.1276
     65 H27        -5.9124  -22.4906    0.2937 H         1 <0>         0.1265
     66 H28        -4.9925  -21.3427   -1.6797 H         1 <0>         0.1319
     67 H29        -3.6984  -19.2668   -1.4062 H         1 <0>         0.1313
     68 H30         1.9859   -1.6775   -1.9304 H         1 <0>         0.4215
@<TRIPOS>BOND
     1    1    2 1
     2    1   40 1
     3    1   41 1
     4    1   42 1
     5    2    7 1
     6    2    3 1
     7    2   68 1
     8    3    4 1
     9    3   43 1
    10    3   44 1
    11    4    5 1
    12    4   45 1
    13    4   46 1
    14    5    6 1
    15    5    8 1
    16    6    7 1
    17    6   47 1
    18    6   48 1
    19    7   49 1
    20    7   50 1
    21    8    9 1
    22    8   51 1
    23    8   52 1
    24    9   10 2
    25    9   11 am
    26   11   12 1
    27   11   53 1
    28   12   17 ar
    29   12   13 ar
    30   13   14 ar
    31   13   54 1
    32   14   15 ar
    33   14   55 1
    34   15   16 ar
    35   15   56 1
    36   16   20 1
    37   16   17 ar
    38   17   18 1
    39   18   19 1
    40   18   57 1
    41   18   58 1
    42   19   24 2
    43   19   20 1
    44   20   21 2
    45   21   22 1
    46   22   23 1
    47   22   24 1
    48   24   25 1
    49   25   29 2
    50   25   26 1
    51   26   27 2
    52   26   59 1
    53   27   28 1
    54   27   30 1
    55   28   29 1
    56   29   60 1
    57   30   31 3
    58   31   32 1
    59   32   33 1
    60   32   61 1
    61   32   62 1
    62   33   34 1
    63   34   39 ar
    64   34   35 ar
    65   35   36 ar
    66   35   63 1
    67   36   37 ar
    68   36   64 1
    69   37   38 ar
    70   37   65 1
    71   38   39 ar
    72   38   66 1
    73   39   67 1
@<TRIPOS>MOLECULE
CHEMBL245377__1
   68    73     0     0     0
SMALL
USER_CHARGES

@<TRIPOS>ATOM
      1 C1          2.4699    0.2432   -1.4351 C.3       1 <0>        -0.0459
      2 N1          1.8698   -1.0638   -1.1359 N.4       1 <0>        -0.3892
      3 C2          0.4386   -0.8922   -0.8540 C.3       1 <0>        -0.0015
      4 C3         -0.1908   -2.2559   -0.5607 C.3       1 <0>         0.0260
      5 N2          0.4839   -2.8655    0.5939 N.3       1 <0>        -0.5230
      6 C4          1.9224   -3.0208    0.3358 C.3       1 <0>         0.0179
      7 C5          2.5344   -1.6508    0.0351 C.3       1 <0>         0.0004
      8 C6         -0.1304   -4.1535    0.9429 C.3       1 <0>         0.0359
      9 C7          0.4162   -4.6291    2.2643 C.2       1 <0>         0.5155
     10 O1          1.2367   -3.9609    2.8570 O.2       1 <0>        -0.5051
     11 N3         -0.0067   -5.7970    2.7874 N.am      1 <0>        -0.6661
     12 C8          0.5680   -6.2844    3.9666 C.ar      1 <0>         0.1578
     13 C9          0.9777   -5.4006    4.9594 C.ar      1 <0>        -0.1037
     14 C10         1.5451   -5.8827    6.1237 C.ar      1 <0>        -0.0995
     15 C11         1.7089   -7.2400    6.3106 C.ar      1 <0>        -0.0992
     16 C12         1.3005   -8.1372    5.3202 C.ar      1 <0>        -0.0168
     17 C13         0.7246   -7.6464    4.1501 C.ar      1 <0>        -0.0990
     18 C14         0.3866   -8.8396    3.2904 C.3       1 <0>        -0.0003
     19 C15         0.8179  -10.0505    4.0818 C.2       1 <0>        -0.2252
     20 C16         1.3545   -9.6146    5.2554 C.2       1 <0>         0.1045
     21 N4          1.7438  -10.7196    5.9594 N.pl3     1 <0>        -0.4509
     22 N5          1.4499  -11.8500    5.1873 N.2       1 <0>        -0.2522
     23 H1          2.1520  -10.7205    6.8393 H         1 <0>         0.4437
     24 C17         0.8839  -11.4527    4.0669 C.2       1 <0>         0.1602
     25 C18         0.4171  -12.3346    2.9670 C.2       1 <0>        -0.0496
     26 C19         1.0900  -13.5092    2.6692 C.2       1 <0>        -0.1050
     27 C20         0.6244  -14.2922    1.6473 C.2       1 <0>        -0.0551
     28 S1         -0.7937  -13.3676    1.0816 S.3       1 <0>         0.1178
     29 C21        -0.6894  -12.0064    2.2313 C.2       1 <0>        -0.1486
     30 C22         1.1425  -15.5341    1.1576 C.1       1 <0>        -0.0719
     31 C23         1.5672  -16.5523    0.7561 C.1       1 <0>        -0.1264
     32 C24         2.0998  -17.8289    0.2527 C.3       1 <0>         0.1774
     33 O2          1.2895  -18.2889   -0.8308 O.3       1 <0>        -0.3104
     34 C25         1.6471  -19.4635   -1.4132 C.ar      1 <0>         0.1265
     35 C26         2.7517  -20.1620   -0.9477 C.ar      1 <0>        -0.2099
     36 C27         3.1128  -21.3560   -1.5411 C.ar      1 <0>        -0.0791
     37 C28         2.3747  -21.8549   -2.5985 C.ar      1 <0>        -0.1548
     38 C29         1.2737  -21.1605   -3.0646 C.ar      1 <0>        -0.0791
     39 C30         0.9048  -19.9691   -2.4706 C.ar      1 <0>        -0.1488
     40 H2          3.5317    0.1159   -1.6456 H         1 <0>         0.1244
     41 H3          1.9769    0.6790   -2.3040 H         1 <0>         0.1243
     42 H4          2.3462    0.9046   -0.5775 H         1 <0>         0.1235
     43 H5          0.3142   -0.2411    0.0113 H         1 <0>         0.1390
     44 H6         -0.0510   -0.4445   -1.7188 H         1 <0>         0.1378
     45 H7         -1.2498   -2.1271   -0.3368 H         1 <0>         0.1261
     46 H8         -0.0788   -2.9028   -1.4308 H         1 <0>         0.0635
     47 H9          2.4052   -3.4500    1.2137 H         1 <0>         0.1395
     48 H10         2.0693   -3.6803   -0.5195 H         1 <0>         0.0582
     49 H11         3.5986   -1.7656   -0.1706 H         1 <0>         0.1362
     50 H12         2.3993   -0.9958    0.8958 H         1 <0>         0.1398
     51 H13        -1.2109   -4.0319    1.0192 H         1 <0>         0.1226
     52 H14         0.0990   -4.8868    0.1697 H         1 <0>         0.0821
     53 H15        -0.7094   -6.2997    2.3465 H         1 <0>         0.4142
     54 H16         0.8527   -4.3369    4.8202 H         1 <0>         0.1467
     55 H17         1.8625   -5.1929    6.8917 H         1 <0>         0.1361
     56 H18         2.1534   -7.6092    7.2230 H         1 <0>         0.1282
     57 H19        -0.6865   -8.8758    3.1022 H         1 <0>         0.0965
     58 H20         0.9319   -8.7908    2.3479 H         1 <0>         0.0973
     59 H21         1.9645  -13.8007    3.2319 H         1 <0>         0.1446
     60 H22        -1.3335  -11.1443    2.3224 H         1 <0>         0.1942
     61 H23         3.1228  -17.6841   -0.0947 H         1 <0>         0.0948
     62 H24         2.0892  -18.5681    1.0536 H         1 <0>         0.0956
     63 H25         3.3289  -19.7724   -0.1223 H         1 <0>         0.1291
     64 H26         3.9726  -21.9001   -1.1791 H         1 <0>         0.1271
     65 H27         2.6588  -22.7884   -3.0614 H         1 <0>         0.1260
     66 H28         0.6989  -21.5521   -3.8909 H         1 <0>         0.1316
     67 H29         0.0421  -19.4292   -2.8322 H         1 <0>         0.1316
     68 H30         1.9848   -1.6761   -1.9297 H         1 <0>         0.4218
@<TRIPOS>BOND
     1    1    2 1
     2    1   40 1
     3    1   41 1
     4    1   42 1
     5    2    7 1
     6    2    3 1
     7    2   68 1
     8    3    4 1
     9    3   43 1
    10    3   44 1
    11    4    5 1
    12    4   45 1
    13    4   46 1
    14    5    6 1
    15    5    8 1
    16    6    7 1
    17    6   47 1
    18    6   48 1
    19    7   49 1
    20    7   50 1
    21    8    9 1
    22    8   51 1
    23    8   52 1
    24    9   10 2
    25    9   11 am
    26   11   12 1
    27   11   53 1
    28   12   17 ar
    29   12   13 ar
    30   13   14 ar
    31   13   54 1
    32   14   15 ar
    33   14   55 1
    34   15   16 ar
    35   15   56 1
    36   16   17 ar
    37   16   20 1
    38   17   18 1
    39   18   57 1
    40   18   58 1
    41   18   19 1
    42   19   24 1
    43   19   20 2
    44   20   21 1
    45   21   22 1
    46   21   23 1
    47   22   24 2
    48   24   25 1
    49   25   29 2
    50   25   26 1
    51   26   27 2
    52   26   59 1
    53   27   28 1
    54   27   30 1
    55   28   29 1
    56   29   60 1
    57   30   31 3
    58   31   32 1
    59   32   33 1
    60   32   61 1
    61   32   62 1
    62   33   34 1
    63   34   39 ar
    64   34   35 ar
    65   35   36 ar
    66   35   63 1
    67   36   37 ar
    68   36   64 1
    69   37   38 ar
    70   37   65 1
    71   38   39 ar
    72   38   66 1
    73   39   67 1
@<TRIPOS>MOLECULE
CHEMBL252832
   55    58     0     0     0
SMALL
USER_CHARGES

@<TRIPOS>ATOM
      1 C1         -0.1314    1.5061    0.0285 C.3       1 <0>        -0.0470
      2 N1         -0.0818    0.0379    0.0225 N.4       1 <0>        -0.3839
      3 C2         -1.4495   -0.4962    0.0061 C.3       1 <0>        -0.0233
      4 C3         -1.3992   -2.0227   -0.1159 C.3       1 <0>         0.0992
      5 N2         -0.5547   -2.5495    0.9673 N.pl3     1 <0>        -0.6442
      6 C4          0.7769   -1.9545    1.1600 C.3       1 <0>         0.1006
      7 C5          0.6239   -0.4311    1.2217 C.3       1 <0>        -0.0225
      8 C6         -1.0051   -3.5863    1.7910 C.ar      1 <0>         0.1929
      9 C7         -2.3051   -4.0591    1.6636 C.ar      1 <0>        -0.1669
     10 C8         -2.7532   -5.0835    2.4753 C.ar      1 <0>        -0.0649
     11 C9         -1.9058   -5.6429    3.4201 C.ar      1 <0>         0.1040
     12 C10        -0.5998   -5.1704    3.5506 C.ar      1 <0>         0.2011
     13 C11        -0.1508   -4.1460    2.7314 C.ar      1 <0>        -0.1728
     14 N3          0.2568   -5.7329    4.5026 N.pl3     1 <0>        -0.6821
     15 C12         1.1161   -6.8788    4.1653 C.3       1 <0>         0.1100
     16 C13         2.5499   -6.5519    4.5980 C.3       1 <0>         0.0475
     17 O1          2.5464   -6.1424    5.9678 O.3       1 <0>        -0.3764
     18 C14         1.7981   -4.9508    6.2205 C.3       1 <0>         0.0480
     19 C15         0.3299   -5.1922    5.8692 C.3       1 <0>         0.1054
     20 N4         -2.3618   -6.6823    4.2438 N.am      1 <0>        -0.6530
     21 C16        -3.2438   -7.5828    3.7667 C.2       1 <0>         0.6072
     22 O2         -3.5656   -7.5565    2.5935 O.2       1 <0>        -0.4925
     23 C17        -3.8169   -8.5966    4.6634 C.2       1 <0>        -0.0490
     24 C18        -4.7125   -9.5644    4.3043 C.2       1 <0>        -0.1089
     25 C19        -4.9923  -10.3103    5.4547 C.2       1 <0>        -0.1293
     26 C20        -4.2489   -9.7610    6.4760 C.2       1 <0>         0.0845
     27 O3         -3.5429   -8.7309    5.9750 O.3       1 <0>        -0.1458
     28 C21        -4.2272  -10.2118    7.8350 C.1       1 <0>         0.2760
     29 N5         -4.2099  -10.5695    8.9131 N.1       1 <0>        -0.3489
     30 H1          0.8834    1.9039    0.0326 H         1 <0>         0.1249
     31 H2         -0.6551    1.8556   -0.8613 H         1 <0>         0.1254
     32 H3         -0.6594    1.8481    0.9186 H         1 <0>         0.1216
     33 H4         -1.9579   -0.2219    0.9304 H         1 <0>         0.1326
     34 H5         -1.9915   -0.0813   -0.8438 H         1 <0>         0.1413
     35 H6         -2.4061   -2.4307   -0.0266 H         1 <0>         0.1280
     36 H7         -0.9729   -2.2993   -1.0802 H         1 <0>         0.0884
     37 H8          1.2087   -2.3173    2.0927 H         1 <0>         0.1243
     38 H9          1.4229   -2.2242    0.3245 H         1 <0>         0.0873
     39 H10         1.6097    0.0316    1.2676 H         1 <0>         0.1403
     40 H11         0.0528   -0.1589    2.1093 H         1 <0>         0.1322
     41 H12        -2.9669   -3.6249    0.9288 H         1 <0>         0.1291
     42 H13        -3.7645   -5.4488    2.3742 H         1 <0>         0.1425
     43 H14         0.8611   -3.7810    2.8274 H         1 <0>         0.1275
     44 H15         0.7671   -7.7669    4.6921 H         1 <0>         0.0629
     45 H16         1.0883   -7.0546    3.0900 H         1 <0>         0.0800
     46 H17         3.1754   -7.4373    4.4843 H         1 <0>         0.1027
     47 H18         2.9425   -5.7459    3.9781 H         1 <0>         0.0505
     48 H19         1.8827   -4.6843    7.2740 H         1 <0>         0.1024
     49 H20         2.1880   -4.1390    5.6064 H         1 <0>         0.0494
     50 H21        -0.2183   -4.2515    5.9217 H         1 <0>         0.0800
     51 H22        -0.0995   -5.9076    6.5705 H         1 <0>         0.0630
     52 H23        -2.0424   -6.7531    5.1570 H         1 <0>         0.4178
     53 H24        -5.1259   -9.7234    3.3193 H         1 <0>         0.1778
     54 H25        -5.6626  -11.1539    5.5278 H         1 <0>         0.1780
     55 H26         0.4096   -0.2774   -0.8004 H         1 <0>         0.4249
@<TRIPOS>BOND
     1    1    2 1
     2    1   30 1
     3    1   31 1
     4    1   32 1
     5    2    7 1
     6    2    3 1
     7    2   55 1
     8    3    4 1
     9    3   33 1
    10    3   34 1
    11    4    5 1
    12    4   35 1
    13    4   36 1
    14    5    6 1
    15    5    8 1
    16    6    7 1
    17    6   37 1
    18    6   38 1
    19    7   39 1
    20    7   40 1
    21    8   13 ar
    22    8    9 ar
    23    9   10 ar
    24    9   41 1
    25   10   11 ar
    26   10   42 1
    27   11   12 ar
    28   11   20 1
    29   12   13 ar
    30   12   14 1
    31   13   43 1
    32   14   19 1
    33   14   15 1
    34   15   16 1
    35   15   44 1
    36   15   45 1
    37   16   17 1
    38   16   46 1
    39   16   47 1
    40   17   18 1
    41   18   19 1
    42   18   48 1
    43   18   49 1
    44   19   50 1
    45   19   51 1
    46   20   21 am
    47   20   52 1
    48   21   22 2
    49   21   23 1
    50   23   27 1
    51   23   24 2
    52   24   25 1
    53   24   53 1
    54   25   26 2
    55   25   54 1
    56   26   27 1
    57   26   28 1
    58   28   29 3
@<TRIPOS>MOLECULE
CHEMBL252832__1
   54    57     0     0     0
SMALL
USER_CHARGES

@<TRIPOS>ATOM
      1 C1         -0.1340    1.5032    0.0256 C.3       1 <0>         0.0243
      2 N1         -0.0846    0.0350    0.0205 N.3       1 <0>        -0.5426
      3 C2         -1.4333   -0.5367   -0.0893 C.3       1 <0>         0.0383
      4 C3         -1.3277   -2.0543   -0.2734 C.3       1 <0>         0.1252
      5 N2         -0.5073   -2.6014    0.8178 N.pl3     1 <0>        -0.6294
      6 C4          0.8036   -1.9873    1.0780 C.3       1 <0>         0.1270
      7 C5          0.6141   -0.4723    1.2089 C.3       1 <0>         0.0392
      8 C6         -0.9619   -3.6768    1.5881 C.ar      1 <0>         0.2218
      9 C7         -2.2465   -4.1711    1.4001 C.ar      1 <0>        -0.1834
     10 C8         -2.6986   -5.2336    2.1589 C.ar      1 <0>        -0.0590
     11 C9         -1.8708   -5.8098    3.1108 C.ar      1 <0>         0.0731
     12 C10        -0.5804   -5.3158    3.3021 C.ar      1 <0>         0.2025
     13 C11        -0.1271   -4.2530    2.5358 C.ar      1 <0>        -0.1885
     14 N3          0.2566   -5.8951    4.2615 N.pl3     1 <0>        -0.6799
     15 C12         1.1511   -7.0100    3.9122 C.3       1 <0>         0.1122
     16 C13         2.5625   -6.6699    4.4044 C.3       1 <0>         0.0463
     17 O1          2.5052   -6.3111    5.7870 O.3       1 <0>        -0.3800
     18 C14         1.7233   -5.1452    6.0572 C.3       1 <0>         0.0468
     19 C15         0.2730   -5.4035    5.6484 C.3       1 <0>         0.1072
     20 N4         -2.3309   -6.8879    3.8808 N.am      1 <0>        -0.6454
     21 C16        -3.1770   -7.7882    3.3421 C.2       1 <0>         0.5996
     22 O2         -3.4606   -7.7254    2.1605 O.2       1 <0>        -0.4941
     23 C17        -3.7572   -8.8457    4.1821 C.2       1 <0>        -0.0361
     24 C18        -4.6192   -9.8178    3.7585 C.2       1 <0>        -0.1181
     25 C19        -4.9205  -10.6110    4.8712 C.2       1 <0>        -0.1277
     26 C20        -4.2231  -10.0845    5.9360 C.2       1 <0>         0.0733
     27 O3         -3.5235   -9.0224    5.4964 O.3       1 <0>        -0.1446
     28 C21        -4.2362  -10.5843    7.2779 C.1       1 <0>         0.2817
     29 N5         -4.2466  -10.9809    8.3424 N.1       1 <0>        -0.3580
     30 H1          0.8809    1.9008    0.0307 H         1 <0>         0.0706
     31 H2         -0.6565    1.8523   -0.8650 H         1 <0>         0.0708
     32 H3         -0.6629    1.8458    0.9149 H         1 <0>         0.0259
     33 H4         -1.9958   -0.3187    0.8185 H         1 <0>         0.0387
     34 H5         -1.9443   -0.1008   -0.9478 H         1 <0>         0.0865
     35 H6         -2.3231   -2.4973   -0.2406 H         1 <0>         0.0885
     36 H7         -0.8570   -2.2751   -1.2315 H         1 <0>         0.0714
     37 H8          1.2173   -2.3860    2.0043 H         1 <0>         0.0845
     38 H9          1.4792   -2.2016    0.2499 H         1 <0>         0.0703
     39 H10         1.5880    0.0102    1.2920 H         1 <0>         0.0856
     40 H11         0.0231   -0.2552    2.0987 H         1 <0>         0.0382
     41 H12        -2.8931   -3.7239    0.6596 H         1 <0>         0.1284
     42 H13        -3.6979   -5.6156    2.0108 H         1 <0>         0.1357
     43 H14         0.8730   -3.8711    2.6789 H         1 <0>         0.1264
     44 H15         0.8044   -7.9239    4.3947 H         1 <0>         0.0582
     45 H16         1.1624   -7.1468    2.8309 H         1 <0>         0.0799
     46 H17         3.2105   -7.5376    4.2799 H         1 <0>         0.0995
     47 H18         2.9577   -5.8338    3.8274 H         1 <0>         0.0526
     48 H19         1.7674   -4.9159    7.1219 H         1 <0>         0.0996
     49 H20         2.1153   -4.3035    5.4862 H         1 <0>         0.0521
     50 H21        -0.2970   -4.4769    5.7162 H         1 <0>         0.0803
     51 H22        -0.1637   -6.1529    6.3086 H         1 <0>         0.0585
     52 H23        -2.0402   -6.9856    4.8010 H         1 <0>         0.4136
     53 H24        -4.9965   -9.9490    2.7551 H         1 <0>         0.1769
     54 H25        -5.5744  -11.4703    4.8913 H         1 <0>         0.1756
@<TRIPOS>BOND
     1    1    2 1
     2    1   30 1
     3    1   31 1
     4    1   32 1
     5    2    7 1
     6    2    3 1
     7    3    4 1
     8    3   33 1
     9    3   34 1
    10    4    5 1
    11    4   35 1
    12    4   36 1
    13    5    6 1
    14    5    8 1
    15    6    7 1
    16    6   37 1
    17    6   38 1
    18    7   39 1
    19    7   40 1
    20    8   13 ar
    21    8    9 ar
    22    9   10 ar
    23    9   41 1
    24   10   11 ar
    25   10   42 1
    26   11   12 ar
    27   11   20 1
    28   12   13 ar
    29   12   14 1
    30   13   43 1
    31   14   19 1
    32   14   15 1
    33   15   16 1
    34   15   44 1
    35   15   45 1
    36   16   17 1
    37   16   46 1
    38   16   47 1
    39   17   18 1
    40   18   19 1
    41   18   48 1
    42   18   49 1
    43   19   50 1
    44   19   51 1
    45   20   21 am
    46   20   52 1
    47   21   22 2
    48   21   23 1
    49   23   27 1
    50   23   24 2
    51   24   25 1
    52   24   53 1
    53   25   26 2
    54   25   54 1
    55   26   27 1
    56   26   28 1
    57   28   29 3
@<TRIPOS>MOLECULE
CHEMBL101253
   40    43     0     0     0
SMALL
USER_CHARGES

@<TRIPOS>ATOM
      1 C1          0.0099    1.3100   -0.6665 C.ar      1 <0>        -0.0873
      2 C2          1.1932    2.0449   -0.6736 C.ar      1 <0>        -0.1031
      3 C3          2.3989    1.4389   -0.4755 C.ar      1 <0>        -0.0878
      4 C4          2.4464    0.0575   -0.2619 C.ar      1 <0>        -0.1050
      5 C5          1.2413   -0.6922   -0.2545 C.ar      1 <0>        -0.0366
      6 C6          0.0201   -0.0377   -0.4614 C.ar      1 <0>        -0.1000
      7 C7          1.3338   -2.0791   -0.0357 C.ar      1 <0>         0.0670
      8 N1          2.5164   -2.6188    0.1508 N.ar      1 <0>        -0.2122
      9 N2          3.6082   -1.9490    0.1455 N.ar      1 <0>        -0.3148
     10 C8          3.6557   -0.6424   -0.0488 C.ar      1 <0>         0.3624
     11 N3          4.8682    0.0284   -0.0441 N.pl3     1 <0>        -0.6425
     12 C9          6.0641   -0.6900    0.0467 C.ar      1 <0>         0.1605
     13 C10         6.1747   -1.9364   -0.5565 C.ar      1 <0>        -0.1016
     14 C11         7.3572   -2.6438   -0.4652 C.ar      1 <0>        -0.0857
     15 C12         8.4313   -2.1122    0.2268 C.ar      1 <0>        -0.0509
     16 C13         8.3240   -0.8708    0.8288 C.ar      1 <0>        -0.0880
     17 C14         7.1459   -0.1562    0.7354 C.ar      1 <0>        -0.1365
     18 Cl1         9.9160   -3.0048    0.3406 Cl        1 <0>        -0.0690
     19 C15         0.0926   -2.9335   -0.0150 C.3       1 <0>        -0.0232
     20 C16        -0.1981   -3.4309   -1.4076 C.ar      1 <0>        -0.0363
     21 C17        -0.9979   -2.6976   -2.2706 C.ar      1 <0>        -0.1703
     22 C18        -1.2425   -3.1855   -3.5404 C.ar      1 <0>         0.0995
     23 N4         -0.7257   -4.3333   -3.9331 N.ar      1 <0>        -0.4856
     24 C19         0.0392   -5.0571   -3.1393 C.ar      1 <0>         0.1005
     25 C20         0.3326   -4.6300   -1.8581 C.ar      1 <0>        -0.1573
     26 H1         -0.9311    1.8168   -0.8216 H         1 <0>         0.1364
     27 H2          1.1553    3.1115   -0.8389 H         1 <0>         0.1355
     28 H3          3.3089    2.0205   -0.4838 H         1 <0>         0.1315
     29 H4         -0.9047   -0.5955   -0.4580 H         1 <0>         0.1411
     30 H5          4.8872    0.9963   -0.1038 H         1 <0>         0.4199
     31 H6          5.3365   -2.3519   -1.0962 H         1 <0>         0.1422
     32 H7          7.4438   -3.6128   -0.9340 H         1 <0>         0.1376
     33 H8          9.1638   -0.4583    1.3683 H         1 <0>         0.1380
     34 H9          7.0641    0.8146    1.2016 H         1 <0>         0.1341
     35 H10         0.2476   -3.7836    0.6494 H         1 <0>         0.1044
     36 H11        -0.7500   -2.3417    0.3426 H         1 <0>         0.0975
     37 H12        -1.4246   -1.7571   -1.9546 H         1 <0>         0.1331
     38 H13        -1.8645   -2.6203   -4.2187 H         1 <0>         0.1558
     39 H14         0.4444   -5.9925   -3.4961 H         1 <0>         0.1573
     40 H15         0.9637   -5.2248   -1.2145 H         1 <0>         0.1397
@<TRIPOS>BOND
     1    1    6 ar
     2    1    2 ar
     3    1   26 1
     4    2    3 ar
     5    2   27 1
     6    3    4 ar
     7    3   28 1
     8    4   10 ar
     9    4    5 ar
    10    5    6 ar
    11    5    7 ar
    12    6   29 1
    13    7    8 ar
    14    7   19 1
    15    8    9 ar
    16    9   10 ar
    17   10   11 1
    18   11   12 1
    19   11   30 1
    20   12   17 ar
    21   12   13 ar
    22   13   14 ar
    23   13   31 1
    24   14   15 ar
    25   14   32 1
    26   15   16 ar
    27   15   18 1
    28   16   17 ar
    29   16   33 1
    30   17   34 1
    31   19   20 1
    32   19   35 1
    33   19   36 1
    34   20   25 ar
    35   20   21 ar
    36   21   22 ar
    37   21   37 1
    38   22   23 ar
    39   22   38 1
    40   23   24 ar
    41   24   25 ar
    42   24   39 1
    43   25   40 1
@<TRIPOS>MOLECULE
CHEMBL101253__1
   41    44     0     0     0
SMALL
USER_CHARGES

@<TRIPOS>ATOM
      1 C1          0.0099    1.3100   -0.6662 C.ar      1 <0>        -0.0674
      2 C2          1.1932    2.0448   -0.6735 C.ar      1 <0>        -0.0487
      3 C3          2.3989    1.4389   -0.4755 C.ar      1 <0>        -0.0845
      4 C4          2.4463    0.0575   -0.2617 C.ar      1 <0>        -0.0739
      5 C5          1.2412   -0.6922   -0.2541 C.ar      1 <0>        -0.0601
      6 C6          0.0201   -0.0377   -0.4609 C.ar      1 <0>        -0.0664
      7 C7          1.3338   -2.0791   -0.0351 C.ar      1 <0>         0.1999
      8 N1          2.5164   -2.6187    0.1514 N.ar      1 <0>        -0.2425
      9 N2          3.6082   -1.9490    0.1459 N.ar      1 <0>        -0.3470
     10 C8          3.6557   -0.6424   -0.0486 C.ar      1 <0>         0.4462
     11 N3          4.8682    0.0284   -0.0441 N.pl3     1 <0>        -0.6032
     12 C9          6.0641   -0.6900    0.0467 C.ar      1 <0>         0.1192
     13 C10         6.1747   -1.9364   -0.5565 C.ar      1 <0>        -0.1022
     14 C11         7.3572   -2.6438   -0.4652 C.ar      1 <0>        -0.0874
     15 C12         8.4313   -2.1122    0.2268 C.ar      1 <0>        -0.0330
     16 C13         8.3240   -0.8708    0.8288 C.ar      1 <0>        -0.0845
     17 C14         7.1459   -0.1562    0.7354 C.ar      1 <0>        -0.1128
     18 Cl1         9.9160   -3.0048    0.3406 Cl        1 <0>        -0.0464
     19 C15         0.0926   -2.9335   -0.0142 C.3       1 <0>        -0.0622
     20 C16        -0.2681   -3.3300   -1.4226 C.ar      1 <0>        -0.0662
     21 C17        -1.1074   -2.5371   -2.1903 C.ar      1 <0>        -0.1635
     22 C18        -1.4160   -2.9329   -3.4780 C.ar      1 <0>         0.1153
     23 N4         -0.9227   -4.0493   -3.9770 N.ar      1 <0>        -0.4689
     24 C19        -0.1216   -4.8277   -3.2760 C.ar      1 <0>         0.1157
     25 C20         0.2360   -4.4934   -1.9836 C.ar      1 <0>        -0.1674
     26 H1         -0.9312    1.8167   -0.8213 H         1 <0>         0.1607
     27 H2          1.1553    3.1114   -0.8390 H         1 <0>         0.1596
     28 H3          3.3088    2.0205   -0.4840 H         1 <0>         0.1526
     29 H4         -0.9047   -0.5955   -0.4574 H         1 <0>         0.1607
     30 H5          4.8872    0.9963   -0.1039 H         1 <0>         0.4371
     31 H6          5.3365   -2.3519   -1.0962 H         1 <0>         0.1372
     32 H7          7.4438   -3.6128   -0.9340 H         1 <0>         0.1449
     33 H8          9.1638   -0.4583    1.3683 H         1 <0>         0.1485
     34 H9          7.0641    0.8146    1.2016 H         1 <0>         0.1430
     35 H10         0.2777   -3.8288    0.5792 H         1 <0>         0.1263
     36 H11        -0.7295   -2.3693    0.4263 H         1 <0>         0.1392
     37 H12        -1.5152   -1.6220   -1.7869 H         1 <0>         0.1407
     38 H13        -2.0691   -2.3208   -4.0824 H         1 <0>         0.1663
     39 H14         0.2627   -5.7349   -3.7185 H         1 <0>         0.1660
     40 H15         0.8965   -5.1324   -1.4163 H         1 <0>         0.1394
     41 H16         2.5657   -3.5757    0.3016 H         1 <0>         0.4699
@<TRIPOS>BOND
     1    1    6 ar
     2    1    2 ar
     3    1   26 1
     4    2    3 ar
     5    2   27 1
     6    3    4 ar
     7    3   28 1
     8    4   10 ar
     9    4    5 ar
    10    5    6 ar
    11    5    7 ar
    12    6   29 1
    13    7    8 ar
    14    7   19 1
    15    8    9 ar
    16    8   41 1
    17    9   10 ar
    18   10   11 1
    19   11   12 1
    20   11   30 1
    21   12   17 ar
    22   12   13 ar
    23   13   14 ar
    24   13   31 1
    25   14   15 ar
    26   14   32 1
    27   15   16 ar
    28   15   18 1
    29   16   17 ar
    30   16   33 1
    31   17   34 1
    32   19   20 1
    33   19   35 1
    34   19   36 1
    35   20   25 ar
    36   20   21 ar
    37   21   22 ar
    38   21   37 1
    39   22   23 ar
    40   22   38 1
    41   23   24 ar
    42   24   25 ar
    43   24   39 1
    44   25   40 1
@<TRIPOS>MOLECULE
CHEMBL258709
   51    54     0     0     0
SMALL
USER_CHARGES

@<TRIPOS>ATOM
      1 C1          0.0101    1.5131    0.0145 C.3       1 <0>        -0.1488
      2 C2          0.0184   -0.0168    0.0048 C.3       1 <0>        -0.0885
      3 C3         -1.4218   -0.5345    0.0125 C.3       1 <0>        -0.1329
      4 C4         -1.4100   -2.0657   -0.0322 C.3       1 <0>         0.1390
      5 N1         -0.5835   -2.5648    1.0753 N.pl3     1 <0>        -0.6769
      6 C5          0.7900   -2.0618    1.2142 C.3       1 <0>         0.1435
      7 C6          0.7535   -0.5306    1.2449 C.3       1 <0>        -0.1330
      8 C7         -1.0947   -3.5009    1.9807 C.ar      1 <0>         0.1479
      9 C8         -0.9467   -4.8553    1.7349 C.ar      1 <0>        -0.0841
     10 C9         -1.4575   -5.7849    2.6393 C.ar      1 <0>        -0.0660
     11 C10        -2.1158   -5.3491    3.7886 C.ar      1 <0>        -0.0810
     12 C11        -2.2626   -3.9991    4.0314 C.ar      1 <0>        -0.1240
     13 C12        -1.7498   -3.0703    3.1360 C.ar      1 <0>         0.1462
     14 N2         -1.8949   -1.7024    3.3884 N.am      1 <0>        -0.6489
     15 C13        -2.0539   -1.2636    4.6527 C.2       1 <0>         0.6016
     16 O1         -1.9709   -2.0440    5.5825 O.2       1 <0>        -0.4852
     17 C14        -2.3277    0.1577    4.9084 C.2       1 <0>        -0.0428
     18 C15        -2.5027    0.7277    6.1381 C.2       1 <0>        -0.1117
     19 C16        -2.7389    2.0907    5.9275 C.2       1 <0>        -0.1281
     20 C17        -2.6975    2.2964    4.5661 C.2       1 <0>         0.0780
     21 O2         -2.4421    1.1172    3.9704 O.3       1 <0>        -0.1452
     22 C18        -2.8872    3.5498    3.9002 C.1       1 <0>         0.2795
     23 N3         -3.0378    4.5442    3.3719 N.1       1 <0>        -0.3539
     24 C19        -1.3013   -7.2364    2.3791 C.ar      1 <0>         0.0069
     25 C20        -0.6398   -7.6939    1.2355 C.ar      1 <0>        -0.1686
     26 C21        -0.5164   -9.0527    1.0324 C.ar      1 <0>         0.1036
     27 N4         -1.0126   -9.9149    1.8992 N.ar      1 <0>        -0.4891
     28 C22        -1.6435   -9.5251    2.9904 C.ar      1 <0>         0.1040
     29 C23        -1.8063   -8.1848    3.2737 C.ar      1 <0>        -0.1683
     30 H1          1.0358    1.8820    0.0078 H         1 <0>         0.0556
     31 H2         -0.5134    1.8792   -0.8687 H         1 <0>         0.0555
     32 H3         -0.4978    1.8681    0.9112 H         1 <0>         0.0512
     33 H4          0.5268   -0.3716   -0.8917 H         1 <0>         0.0731
     34 H5         -1.9235   -0.2009    0.9208 H         1 <0>         0.0560
     35 H6         -1.9515   -0.1492   -0.8587 H         1 <0>         0.0737
     36 H7         -2.4275   -2.4422    0.0728 H         1 <0>         0.0703
     37 H8         -0.9904   -2.4004   -0.9809 H         1 <0>         0.0573
     38 H9          1.2240   -2.4356    2.1415 H         1 <0>         0.0693
     39 H10         1.3890   -2.3961    0.3671 H         1 <0>         0.0554
     40 H11         1.7721   -0.1425    1.2508 H         1 <0>         0.0714
     41 H12         0.2314   -0.1970    2.1416 H         1 <0>         0.0588
     42 H13        -0.4368   -5.1909    0.8440 H         1 <0>         0.1329
     43 H14        -2.5116   -6.0693    4.4894 H         1 <0>         0.1331
     44 H15        -2.7735   -3.6641    4.9220 H         1 <0>         0.1516
     45 H16        -1.8810   -1.0695    2.6534 H         1 <0>         0.4176
     46 H17        -2.4664    0.2218    7.0916 H         1 <0>         0.1785
     47 H18        -2.9189    2.8378    6.6864 H         1 <0>         0.1771
     48 H19        -0.2318   -6.9938    0.5214 H         1 <0>         0.1359
     49 H20        -0.0071   -9.4157    0.1519 H         1 <0>         0.1570
     50 H21        -2.0344  -10.2652    3.6729 H         1 <0>         0.1578
     51 H22        -2.3201   -7.8728    4.1709 H         1 <0>         0.1381
@<TRIPOS>BOND
     1    1    2 1
     2    1   30 1
     3    1   31 1
     4    1   32 1
     5    2    7 1
     6    2    3 1
     7    2   33 1
     8    3    4 1
     9    3   34 1
    10    3   35 1
    11    4    5 1
    12    4   36 1
    13    4   37 1
    14    5    6 1
    15    5    8 1
    16    6    7 1
    17    6   38 1
    18    6   39 1
    19    7   40 1
    20    7   41 1
    21    8   13 ar
    22    8    9 ar
    23    9   10 ar
    24    9   42 1
    25   10   11 ar
    26   10   24 1
    27   11   12 ar
    28   11   43 1
    29   12   13 ar
    30   12   44 1
    31   13   14 1
    32   14   15 am
    33   14   45 1
    34   15   16 2
    35   15   17 1
    36   17   21 1
    37   17   18 2
    38   18   19 1
    39   18   46 1
    40   19   20 2
    41   19   47 1
    42   20   21 1
    43   20   22 1
    44   22   23 3
    45   24   29 ar
    46   24   25 ar
    47   25   26 ar
    48   25   48 1
    49   26   27 ar
    50   26   49 1
    51   27   28 ar
    52   28   29 ar
    53   28   50 1
    54   29   51 1
@<TRIPOS>MOLECULE
CHEMBL257664
   66    70     0     0     0
SMALL
USER_CHARGES

@<TRIPOS>ATOM
      1 C1          0.0652    1.4546   -1.2478 C.3       1 <0>         0.0860
      2 N1          0.0809   -0.0003   -1.0767 N.am      1 <0>        -0.7236
      3 C2         -1.0720   -0.6668   -0.8691 C.2       1 <0>         0.5824
      4 O1         -2.1134   -0.0530   -0.7333 O.2       1 <0>        -0.5532
      5 C3         -1.0709   -2.1368   -0.8067 C.2       1 <0>        -0.3239
      6 C4         -2.2552   -2.8351   -0.7148 C.2       1 <0>         0.2499
      7 N2         -2.2952   -4.1758   -0.6557 N.pl3     1 <0>        -0.4669
      8 C5         -1.1661   -4.9527   -0.6816 C.ar      1 <0>         0.4713
      9 C6          0.1068   -4.3532   -0.7740 C.ar      1 <0>        -0.3373
     10 C7          0.1966   -2.8878   -0.8476 C.2       1 <0>         0.4533
     11 O2          1.2711   -2.3192   -0.9338 O.2       1 <0>        -0.4829
     12 C8          1.2406   -5.1665   -0.7990 C.ar      1 <0>         0.2823
     13 N3          1.0770   -6.4764   -0.7348 N.ar      1 <0>        -0.5753
     14 C9         -0.1357   -7.0118   -0.6484 C.ar      1 <0>         0.6108
     15 N4         -1.2379   -6.2777   -0.6216 N.ar      1 <0>        -0.5941
     16 N5         -0.2516   -8.3862   -0.5844 N.pl3     1 <0>        -0.6266
     17 C10         0.8975   -9.1829   -0.5000 C.ar      1 <0>         0.1260
     18 C11         2.0144   -8.7202    0.1833 C.ar      1 <0>        -0.0609
     19 C12         3.1472   -9.5052    0.2662 C.ar      1 <0>        -0.1640
     20 C13         3.1695  -10.7577   -0.3334 C.ar      1 <0>         0.1831
     21 C14         2.0523  -11.2205   -1.0163 C.ar      1 <0>        -0.1634
     22 C15         0.9177  -10.4376   -1.0947 C.ar      1 <0>        -0.0955
     23 N6          4.3177  -11.5532   -0.2499 N.pl3     1 <0>        -0.6452
     24 C16         4.4115  -12.8254   -0.9825 C.3       1 <0>         0.1004
     25 C17         5.7299  -12.8402   -1.7632 C.3       1 <0>        -0.0234
     26 N7          6.8456  -12.5873   -0.8428 N.4       1 <0>        -0.3837
     27 C18         6.7341  -11.2350   -0.2815 C.3       1 <0>        -0.0233
     28 C19         5.4677  -11.1379    0.5682 C.3       1 <0>         0.0989
     29 C20         8.1158  -12.7103   -1.5703 C.3       1 <0>        -0.0472
     30 C21        -3.5996   -4.8358   -0.5591 C.3       1 <0>         0.1350
     31 C22        -4.1214   -5.1223   -1.9435 C.ar      1 <0>        -0.1270
     32 C23        -4.8974   -4.1838   -2.5976 C.ar      1 <0>        -0.0991
     33 C24        -5.3760   -4.4466   -3.8675 C.ar      1 <0>        -0.1192
     34 C25        -5.0783   -5.6478   -4.4836 C.ar      1 <0>        -0.1037
     35 C26        -4.3015   -6.5859   -3.8298 C.ar      1 <0>        -0.1256
     36 C27        -3.8193   -6.3213   -2.5616 C.ar      1 <0>        -0.0892
     37 H1          1.0827    1.8131   -1.4037 H         1 <0>         0.0762
     38 H2         -0.5471    1.7123   -2.1119 H         1 <0>         0.0597
     39 H3         -0.3515    1.9210   -0.3551 H         1 <0>         0.0612
     40 H4          0.9209   -0.4839   -1.1128 H         1 <0>         0.4140
     41 H5         -3.1839   -2.2845   -0.6890 H         1 <0>         0.1881
     42 H6          2.2284   -4.7356   -0.8696 H         1 <0>         0.1907
     43 H7         -1.1288   -8.8001   -0.5979 H         1 <0>         0.4267
     44 H8          1.9971   -7.7462    0.6496 H         1 <0>         0.1419
     45 H9          4.0161   -9.1451    0.7970 H         1 <0>         0.1267
     46 H10         2.0695  -12.1945   -1.4826 H         1 <0>         0.1275
     47 H11         0.0473  -10.7993   -1.6220 H         1 <0>         0.1315
     48 H12         4.3941  -13.6563   -0.2773 H         1 <0>         0.0872
     49 H13         3.5745  -12.9116   -1.6754 H         1 <0>         0.1258
     50 H14         5.8618  -13.8138   -2.2353 H         1 <0>         0.1405
     51 H15         5.7075  -12.0649   -2.5290 H         1 <0>         0.1324
     52 H16         7.6060  -11.0257    0.3383 H         1 <0>         0.1411
     53 H17         6.6814  -10.5082   -1.0921 H         1 <0>         0.1326
     54 H18         5.3286  -10.1090    0.9001 H         1 <0>         0.1272
     55 H19         5.5587  -11.7955    1.4327 H         1 <0>         0.0871
     56 H20         8.1415  -11.9832   -2.3820 H         1 <0>         0.1216
     57 H21         8.9450  -12.5227   -0.8881 H         1 <0>         0.1252
     58 H22         8.2035  -13.7163   -1.9808 H         1 <0>         0.1249
     59 H23        -3.4936   -5.7713   -0.0099 H         1 <0>         0.1186
     60 H24        -4.2986   -4.1840   -0.0350 H         1 <0>         0.1107
     61 H25        -5.1301   -3.2454   -2.1164 H         1 <0>         0.1263
     62 H26        -5.9829   -3.7137   -4.3783 H         1 <0>         0.1283
     63 H27        -5.4528   -5.8534   -5.4754 H         1 <0>         0.1257
     64 H28        -4.0691   -7.5245   -4.3109 H         1 <0>         0.1231
     65 H29        -3.2093   -7.0527   -2.0523 H         1 <0>         0.1276
     66 H30         6.8226  -13.2637   -0.0944 H         1 <0>         0.4246
@<TRIPOS>BOND
     1    1    2 1
     2    1   37 1
     3    1   38 1
     4    1   39 1
     5    2    3 am
     6    2   40 1
     7    3    4 2
     8    3    5 1
     9    5   10 1
    10    5    6 2
    11    6    7 1
    12    6   41 1
    13    7    8 1
    14    7   30 1
    15    8   15 ar
    16    8    9 ar
    17    9   10 1
    18    9   12 ar
    19   10   11 2
    20   12   13 ar
    21   12   42 1
    22   13   14 ar
    23   14   15 ar
    24   14   16 1
    25   16   17 1
    26   16   43 1
    27   17   22 ar
    28   17   18 ar
    29   18   19 ar
    30   18   44 1
    31   19   20 ar
    32   19   45 1
    33   20   21 ar
    34   20   23 1
    35   21   22 ar
    36   21   46 1
    37   22   47 1
    38   23   28 1
    39   23   24 1
    40   24   25 1
    41   24   48 1
    42   24   49 1
    43   25   26 1
    44   25   50 1
    45   25   51 1
    46   26   27 1
    47   26   29 1
    48   26   66 1
    49   27   28 1
    50   27   52 1
    51   27   53 1
    52   28   54 1
    53   28   55 1
    54   29   56 1
    55   29   57 1
    56   29   58 1
    57   30   31 1
    58   30   59 1
    59   30   60 1
    60   31   36 ar
    61   31   32 ar
    62   32   33 ar
    63   32   61 1
    64   33   34 ar
    65   33   62 1
    66   34   35 ar
    67   34   63 1
    68   35   36 ar
    69   35   64 1
    70   36   65 1
@<TRIPOS>MOLECULE
CHEMBL257664__1
   65    69     0     0     0
SMALL
USER_CHARGES

@<TRIPOS>ATOM
      1 C1          1.0336    1.4567    0.7127 C.3       1 <0>         0.0870
      2 N1          0.8998    0.0013    0.6113 N.am      1 <0>        -0.7243
      3 C2          1.3056   -0.6366   -0.5043 C.2       1 <0>         0.5845
      4 O1          1.6985    0.0027   -1.4617 O.2       1 <0>        -0.5576
      5 C3          1.2736   -2.1065   -0.5643 C.2       1 <0>        -0.3288
      6 C4          1.7961   -2.7750   -1.6498 C.2       1 <0>         0.2513
      7 N2          1.7854   -4.1145   -1.7410 N.pl3     1 <0>        -0.4678
      8 C5          1.2558   -4.9194   -0.7660 C.ar      1 <0>         0.4692
      9 C6          0.6909   -4.3518    0.3945 C.ar      1 <0>        -0.3443
     10 C7          0.6873   -2.8889    0.5386 C.2       1 <0>         0.4544
     11 O2          0.2166   -2.3472    1.5237 O.2       1 <0>        -0.4864
     12 C8          0.1586   -5.1932    1.3724 C.ar      1 <0>         0.2830
     13 N3          0.2047   -6.4989    1.1723 N.ar      1 <0>        -0.5684
     14 C9          0.7438   -7.0038    0.0681 C.ar      1 <0>         0.6125
     15 N4          1.2599   -6.2424   -0.8850 N.ar      1 <0>        -0.5995
     16 N5          0.7673   -8.3751   -0.0921 N.pl3     1 <0>        -0.6185
     17 C10         0.1323   -9.2006    0.8447 C.ar      1 <0>         0.0889
     18 C11        -1.0245   -8.7684    1.4798 C.ar      1 <0>        -0.0538
     19 C12        -1.6501   -9.5818    2.4035 C.ar      1 <0>        -0.1816
     20 C13        -1.1227  -10.8326    2.6971 C.ar      1 <0>         0.2142
     21 C14         0.0339  -11.2650    2.0616 C.ar      1 <0>        -0.1817
     22 C15         0.6565  -10.4536    1.1341 C.ar      1 <0>        -0.0877
     23 N6         -1.7565  -11.6569    3.6337 N.pl3     1 <0>        -0.6306
     24 C16        -1.1480  -12.9280    4.0546 C.3       1 <0>         0.1262
     25 C17        -1.1121  -12.9669    5.5861 C.3       1 <0>         0.0381
     26 N7         -2.4619  -12.7206    6.1108 N.3       1 <0>        -0.5426
     27 C18        -2.9381  -11.3791    5.7479 C.3       1 <0>         0.0377
     28 C19        -3.0459  -11.2722    4.2276 C.3       1 <0>         0.1253
     29 C20        -2.5054  -12.9190    7.5657 C.3       1 <0>         0.0242
     30 C21         2.3633   -4.7418   -2.9322 C.3       1 <0>         0.1355
     31 C22         3.8275   -5.0107   -2.6980 C.ar      1 <0>        -0.1251
     32 C23         4.7674   -4.0510   -3.0242 C.ar      1 <0>        -0.1004
     33 C24         6.1104   -4.2977   -2.8094 C.ar      1 <0>        -0.1212
     34 C25         6.5136   -5.5040   -2.2680 C.ar      1 <0>        -0.1054
     35 C26         5.5737   -6.4634   -1.9409 C.ar      1 <0>        -0.1249
     36 C27         4.2303   -6.2150   -2.1518 C.ar      1 <0>        -0.0874
     37 H1          2.0841    1.7323    0.6191 H         1 <0>         0.0583
     38 H2          0.4612    1.9306   -0.0847 H         1 <0>         0.0598
     39 H3          0.6553    1.7899    1.6791 H         1 <0>         0.0753
     40 H4          0.5191   -0.5031    1.3472 H         1 <0>         0.4149
     41 H5          2.2293   -2.2013   -2.4558 H         1 <0>         0.1855
     42 H6         -0.2802   -4.7871    2.2718 H         1 <0>         0.1893
     43 H7          1.2235   -8.7667   -0.8532 H         1 <0>         0.4229
     44 H8         -1.4346   -7.7957    1.2515 H         1 <0>         0.1347
     45 H9         -2.5494   -9.2453    2.8979 H         1 <0>         0.1262
     46 H10         0.4441  -12.2377    2.2899 H         1 <0>         0.1268
     47 H11         1.5536  -10.7916    0.6366 H         1 <0>         0.1241
     48 H12        -1.7440  -13.7607    3.6811 H         1 <0>         0.0704
     49 H13        -0.1332  -12.9956    3.6627 H         1 <0>         0.0862
     50 H14        -0.7663  -13.9462    5.9171 H         1 <0>         0.0859
     51 H15        -0.4330  -12.1976    5.9536 H         1 <0>         0.0386
     52 H16        -3.9165  -11.2069    6.1963 H         1 <0>         0.0865
     53 H17        -2.2335  -10.6319    6.1132 H         1 <0>         0.0387
     54 H18        -3.2852  -10.2457    3.9501 H         1 <0>         0.0876
     55 H19        -3.8278  -11.9427    3.8711 H         1 <0>         0.0704
     56 H20        -1.8120  -12.2296    8.0473 H         1 <0>         0.0261
     57 H21        -3.5160  -12.7302    7.9280 H         1 <0>         0.0706
     58 H22        -2.2207  -13.9444    7.8012 H         1 <0>         0.0707
     59 H23         1.8490   -5.6814   -3.1337 H         1 <0>         0.1189
     60 H24         2.2485   -4.0743   -3.7862 H         1 <0>         0.1085
     61 H25         4.4523   -3.1085   -3.4472 H         1 <0>         0.1251
     62 H26         6.8448   -3.5481   -3.0650 H         1 <0>         0.1265
     63 H27         7.5630   -5.6970   -2.1009 H         1 <0>         0.1244
     64 H28         5.8888   -7.4060   -1.5183 H         1 <0>         0.1237
     65 H29         3.4957   -6.9631   -1.8928 H         1 <0>         0.1297
@<TRIPOS>BOND
     1    1    2 1
     2    1   37 1
     3    1   38 1
     4    1   39 1
     5    2    3 am
     6    2   40 1
     7    3    4 2
     8    3    5 1
     9    5   10 1
    10    5    6 2
    11    6    7 1
    12    6   41 1
    13    7    8 1
    14    7   30 1
    15    8   15 ar
    16    8    9 ar
    17    9   10 1
    18    9   12 ar
    19   10   11 2
    20   12   13 ar
    21   12   42 1
    22   13   14 ar
    23   14   15 ar
    24   14   16 1
    25   16   17 1
    26   16   43 1
    27   17   22 ar
    28   17   18 ar
    29   18   19 ar
    30   18   44 1
    31   19   20 ar
    32   19   45 1
    33   20   21 ar
    34   20   23 1
    35   21   22 ar
    36   21   46 1
    37   22   47 1
    38   23   28 1
    39   23   24 1
    40   24   25 1
    41   24   48 1
    42   24   49 1
    43   25   26 1
    44   25   50 1
    45   25   51 1
    46   26   27 1
    47   26   29 1
    48   27   28 1
    49   27   52 1
    50   27   53 1
    51   28   54 1
    52   28   55 1
    53   29   56 1
    54   29   57 1
    55   29   58 1
    56   30   31 1
    57   30   59 1
    58   30   60 1
    59   31   36 ar
    60   31   32 ar
    61   32   33 ar
    62   32   61 1
    63   33   34 ar
    64   33   62 1
    65   34   35 ar
    66   34   63 1
    67   35   36 ar
    68   35   64 1
    69   36   65 1
@<TRIPOS>MOLECULE
CHEMBL273011
   39    42     0     0     0
SMALL
USER_CHARGES

@<TRIPOS>ATOM
      1 C1         -0.0178    1.4608    0.0101 C.3       1 <0>         0.0711
      2 N1          0.0021   -0.0041    0.0020 N.pl3     1 <0>        -0.4641
      3 C2          0.0080   -0.8070   -1.1047 C.2       1 <0>        -0.0078
      4 C3          0.0275   -2.0914   -0.6546 C.2       1 <0>         0.0326
      5 N2          0.0330   -2.0522    0.6942 N.2       1 <0>        -0.4616
      6 C4          0.0238   -0.8093    1.0869 C.2       1 <0>         0.1805
      7 C5          0.0398   -3.3108   -1.4931 C.2       1 <0>        -0.0780
      8 C6          0.0539   -4.5715   -0.9048 C.2       1 <0>         0.0545
      9 C7          0.0658   -5.7509   -1.7845 C.ar      1 <0>        -0.1084
     10 C8          0.0805   -7.0372   -1.2443 C.ar      1 <0>        -0.0021
     11 C9          0.0921   -8.1375   -2.0963 C.ar      1 <0>        -0.0549
     12 C10         0.0889   -7.9483   -3.4852 C.ar      1 <0>        -0.0230
     13 C11         0.0745   -6.6918   -4.0150 C.ar      1 <0>        -0.1578
     14 C12         0.0627   -5.5747   -3.1804 C.ar      1 <0>         0.2083
     15 N3          0.0487   -4.3078   -3.7233 N.am      1 <0>        -0.6258
     16 H1          0.0468   -4.2079   -4.6881 H         1 <0>         0.4213
     17 C13         0.0314   -3.2077   -2.9524 C.2       1 <0>         0.5530
     18 O1          0.0136   -2.1078   -3.4763 O.2       1 <0>        -0.5232
     19 C14         0.1078   -9.4628   -1.5541 C.1       1 <0>         0.2524
     20 N4          0.1202  -10.5142   -1.1241 N.1       1 <0>        -0.4089
     21 C15         0.0572   -4.7221    0.5654 C.ar      1 <0>        -0.0456
     22 C16         1.1608   -5.2843    1.2103 C.ar      1 <0>        -0.0974
     23 C17         1.1575   -5.4215    2.5828 C.ar      1 <0>        -0.1267
     24 C18         0.0637   -5.0038    3.3204 C.ar      1 <0>        -0.1067
     25 C19        -1.0333   -4.4459    2.6877 C.ar      1 <0>        -0.1224
     26 C20        -1.0409   -4.2975    1.3164 C.ar      1 <0>        -0.0372
     27 H2          1.0048    1.8381    0.0023 H         1 <0>         0.0788
     28 H3         -0.5450    1.8219   -0.8730 H         1 <0>         0.0872
     29 H4         -0.5280    1.8123    0.9069 H         1 <0>         0.0894
     30 H5         -0.0013   -0.4847   -2.1355 H         1 <0>         0.1921
     31 H6          0.0295   -0.4766    2.1144 H         1 <0>         0.2046
     32 H7          0.0833   -7.1778   -0.1735 H         1 <0>         0.1476
     33 H8          0.0983   -8.8057   -4.1418 H         1 <0>         0.1438
     34 H9          0.0722   -6.5611   -5.0871 H         1 <0>         0.1466
     35 H10         2.0149   -5.6113    0.6358 H         1 <0>         0.1182
     36 H11         2.0103   -5.8561    3.0829 H         1 <0>         0.1200
     37 H12         0.0660   -5.1142    4.3947 H         1 <0>         0.1178
     38 H13        -1.8838   -4.1224    3.2694 H         1 <0>         0.1185
     39 H14        -1.8958   -3.8577    0.8243 H         1 <0>         0.1132
@<TRIPOS>BOND
     1    1    2 1
     2    1   27 1
     3    1   28 1
     4    1   29 1
     5    2    6 1
     6    2    3 1
     7    3    4 2
     8    3   30 1
     9    4    5 1
    10    4    7 1
    11    5    6 2
    12    6   31 1
    13    7   17 1
    14    7    8 2
    15    8    9 1
    16    8   21 1
    17    9   14 ar
    18    9   10 ar
    19   10   11 ar
    20   10   32 1
    21   11   12 ar
    22   11   19 1
    23   12   13 ar
    24   12   33 1
    25   13   14 ar
    26   13   34 1
    27   14   15 1
    28   15   16 1
    29   15   17 am
    30   17   18 2
    31   19   20 3
    32   21   26 ar
    33   21   22 ar
    34   22   23 ar
    35   22   35 1
    36   23   24 ar
    37   23   36 1
    38   24   25 ar
    39   24   37 1
    40   25   26 ar
    41   25   38 1
    42   26   39 1
@<TRIPOS>MOLECULE
CHEMBL1169979
   64    67     0     0     0
SMALL
USER_CHARGES

@<TRIPOS>ATOM
      1 C1         -0.0367    1.5199    0.0296 C.3       1 <0>        -0.1401
      2 C2         -0.0119   -0.0098    0.0144 C.3       1 <0>        -0.0656
      3 C3         -1.4475   -0.5488    0.0404 C.3       1 <0>        -0.1052
      4 C4         -1.4010   -2.0639   -0.1678 C.3       1 <0>        -0.0759
      5 C5         -0.4031   -2.6835    0.7665 C.2       1 <0>        -0.0936
      6 C6          0.5327   -2.0072    1.3890 C.2       1 <0>        -0.1190
      7 C7          0.7223   -0.5244    1.2543 C.3       1 <0>        -0.0785
      8 C8         -0.4796   -4.1400    0.9991 C.ar      1 <0>        -0.0814
      9 C9         -1.4878   -4.6695    1.8047 C.ar      1 <0>        -0.0760
     10 C10        -1.5547   -6.0309    2.0181 C.ar      1 <0>        -0.1144
     11 C11        -0.6247   -6.8756    1.4363 C.ar      1 <0>        -0.0935
     12 C12         0.3789   -6.3644    0.6364 C.ar      1 <0>        -0.1216
     13 C13         0.4569   -4.9983    0.4069 C.ar      1 <0>         0.1825
     14 N1          1.4667   -4.4806   -0.4056 N.am      1 <0>        -0.6637
     15 C14         2.6886   -5.0492   -0.4069 C.2       1 <0>         0.6277
     16 O1          2.8888   -6.0615    0.2364 O.2       1 <0>        -0.5302
     17 C15         3.7832   -4.4435   -1.1887 C.2       1 <0>         0.0482
     18 N2          3.6867   -3.3074   -1.9450 N.2       1 <0>        -0.5265
     19 C16         4.8963   -3.0845   -2.4991 C.2       1 <0>        -0.0066
     20 C17         5.7273   -4.1005   -2.0687 C.2       1 <0>        -0.0430
     21 N3          5.0098   -4.9033   -1.2677 N.2       1 <0>        -0.4518
     22 C18         7.1081   -4.2644   -2.4111 C.1       1 <0>         0.3317
     23 N4          8.2034   -4.3945   -2.6827 N.1       1 <0>        -0.4920
     24 C19        -2.6446   -6.6010    2.8887 C.3       1 <0>        -0.0698
     25 C20        -2.0177   -7.3473    4.0723 C.3       1 <0>         0.1310
     26 N5         -3.0924   -7.9915    4.8440 N.pl3     1 <0>        -0.6201
     27 C21        -4.0119   -8.7443    4.1477 C.2       1 <0>         0.6978
     28 N6         -4.4265   -9.9183    4.5907 N.2       1 <0>        -0.5345
     29 C22        -5.3324  -10.6302    3.8775 C.1       1 <0>         0.3856
     30 N7         -6.0918  -11.2270    3.2796 N.1       1 <0>        -0.4657
     31 N8         -4.4775   -8.2109    2.9663 N.pl3     1 <0>        -0.6649
     32 C23        -3.4940   -7.5811    2.0709 C.3       1 <0>         0.1270
     33 C24        -5.8984   -8.2687    2.6141 C.3       1 <0>         0.1020
     34 C25        -3.1807   -7.8382    6.2983 C.3       1 <0>         0.1080
     35 C26         0.7029   -0.4998   -1.2465 C.3       1 <0>        -0.1392
     36 H1          0.9849    1.8999    0.0289 H         1 <0>         0.0553
     37 H2         -0.5602    1.8836   -0.8546 H         1 <0>         0.0537
     38 H3         -0.5526    1.8661    0.9252 H         1 <0>         0.0509
     39 H4         -1.9052   -0.3254    1.0041 H         1 <0>         0.0613
     40 H5         -2.0266   -0.0868   -0.7592 H         1 <0>         0.0636
     41 H6         -2.3874   -2.4857    0.0255 H         1 <0>         0.0679
     42 H7         -1.1139   -2.2786   -1.1972 H         1 <0>         0.0754
     43 H8          1.2064   -2.5491    2.0363 H         1 <0>         0.1025
     44 H9          1.7856   -0.3027    1.1627 H         1 <0>         0.0751
     45 H10         0.3268   -0.0279    2.1404 H         1 <0>         0.0714
     46 H11        -2.2151   -4.0145    2.2612 H         1 <0>         0.1220
     47 H12        -0.6839   -7.9400    1.6092 H         1 <0>         0.1201
     48 H13         1.1009   -7.0293    0.1858 H         1 <0>         0.1437
     49 H14         1.2890   -3.7115   -0.9694 H         1 <0>         0.4177
     50 H15         5.1635   -2.2684   -3.1542 H         1 <0>         0.1467
     51 H16        -3.2756   -5.7930    3.2588 H         1 <0>         0.0916
     52 H17        -1.3276   -8.1057    3.7025 H         1 <0>         0.0742
     53 H18        -1.4832   -6.6415    4.7081 H         1 <0>         0.0971
     54 H19        -4.0131   -7.0422    1.2783 H         1 <0>         0.0907
     55 H20        -2.8519   -8.3472    1.6361 H         1 <0>         0.0716
     56 H21        -6.4493   -8.7732    3.4079 H         1 <0>         0.0705
     57 H22        -6.2837   -7.2565    2.4911 H         1 <0>         0.0685
     58 H23        -6.0194   -8.8194    1.6812 H         1 <0>         0.0619
     59 H24        -3.7910   -6.9667    6.5354 H         1 <0>         0.0531
     60 H25        -3.6362   -8.7291    6.7306 H         1 <0>         0.0812
     61 H26        -2.1808   -7.7046    6.7110 H         1 <0>         0.0735
     62 H27         1.7249   -0.1211   -1.2552 H         1 <0>         0.0579
     63 H28         0.7191   -1.5896   -1.2547 H         1 <0>         0.0628
     64 H29         0.1738   -0.1377   -2.1280 H         1 <0>         0.0495
@<TRIPOS>BOND
     1    1    2 1
     2    1   36 1
     3    1   37 1
     4    1   38 1
     5    2    7 1
     6    2    3 1
     7    2   35 1
     8    3    4 1
     9    3   39 1
    10    3   40 1
    11    4    5 1
    12    4   41 1
    13    4   42 1
    14    5    6 2
    15    5    8 1
    16    6    7 1
    17    6   43 1
    18    7   44 1
    19    7   45 1
    20    8   13 ar
    21    8    9 ar
    22    9   10 ar
    23    9   46 1
    24   10   11 ar
    25   10   24 1
    26   11   12 ar
    27   11   47 1
    28   12   13 ar
    29   12   48 1
    30   13   14 1
    31   14   15 am
    32   14   49 1
    33   15   16 2
    34   15   17 1
    35   17   21 2
    36   17   18 1
    37   18   19 1
    38   19   20 2
    39   19   50 1
    40   20   21 1
    41   20   22 1
    42   22   23 3
    43   24   32 1
    44   24   25 1
    45   24   51 1
    46   25   26 1
    47   25   52 1
    48   25   53 1
    49   26   27 1
    50   26   34 1
    51   27   28 2
    52   27   31 1
    53   28   29 1
    54   29   30 3
    55   31   32 1
    56   31   33 1
    57   32   54 1
    58   32   55 1
    59   33   56 1
    60   33   57 1
    61   33   58 1
    62   34   59 1
    63   34   60 1
    64   34   61 1
    65   35   62 1
    66   35   63 1
    67   35   64 1
@<TRIPOS>MOLECULE
CHEMBL1169979__1
   65    68     0     0     0
SMALL
USER_CHARGES

@<TRIPOS>ATOM
      1 C1         -0.0367    1.5199    0.0296 C.3       1 <0>        -0.1429
      2 C2         -0.0119   -0.0098    0.0144 C.3       1 <0>        -0.0654
      3 C3         -1.4475   -0.5488    0.0404 C.3       1 <0>        -0.1081
      4 C4         -1.4010   -2.0639   -0.1678 C.3       1 <0>        -0.0774
      5 C5         -0.4031   -2.6835    0.7665 C.2       1 <0>        -0.0990
      6 C6          0.5327   -2.0072    1.3890 C.2       1 <0>        -0.1181
      7 C7          0.7223   -0.5244    1.2543 C.3       1 <0>        -0.0811
      8 C8         -0.4796   -4.1400    0.9991 C.ar      1 <0>        -0.0617
      9 C9         -1.4878   -4.6695    1.8047 C.ar      1 <0>        -0.0770
     10 C10        -1.5547   -6.0309    2.0181 C.ar      1 <0>        -0.0899
     11 C11        -0.6247   -6.8756    1.4363 C.ar      1 <0>        -0.0952
     12 C12         0.3789   -6.3644    0.6364 C.ar      1 <0>        -0.1123
     13 C13         0.4569   -4.9983    0.4069 C.ar      1 <0>         0.1526
     14 N1          1.4667   -4.4806   -0.4056 N.am      1 <0>        -0.6403
     15 C14         2.6886   -5.0492   -0.4069 C.2       1 <0>         0.6111
     16 O1          2.8888   -6.0615    0.2364 O.2       1 <0>        -0.5124
     17 C15         3.7832   -4.4435   -1.1887 C.2       1 <0>         0.1587
     18 N2          5.0606   -4.9259   -1.2754 N.pl3     1 <0>        -0.5110
     19 H1          5.4045   -5.7203   -0.8377 H         1 <0>         0.4428
     20 C16         5.7545   -4.0955   -2.0808 C.2       1 <0>         0.0647
     21 C17         4.8808   -3.1033   -2.4813 C.2       1 <0>         0.0607
     22 N3          3.6891   -3.3572   -1.9190 N.2       1 <0>        -0.4005
     23 C18         5.1897   -2.0045   -3.3461 C.1       1 <0>         0.2935
     24 N4          5.4347   -1.1329   -4.0321 N.1       1 <0>        -0.3914
     25 C19        -2.6446   -6.6010    2.8887 C.3       1 <0>        -0.0781
     26 C20        -2.0177   -7.3473    4.0723 C.3       1 <0>         0.1333
     27 N5         -3.0924   -7.9915    4.8440 N.pl3     1 <0>        -0.6207
     28 C21        -4.0119   -8.7443    4.1477 C.2       1 <0>         0.6948
     29 N6         -4.4265   -9.9183    4.5907 N.2       1 <0>        -0.5281
     30 C22        -5.3323  -10.6302    3.8775 C.1       1 <0>         0.3823
     31 N7         -6.0918  -11.2270    3.2796 N.1       1 <0>        -0.4576
     32 N8         -4.4775   -8.2109    2.9663 N.pl3     1 <0>        -0.6650
     33 C23        -3.4940   -7.5811    2.0709 C.3       1 <0>         0.1283
     34 C24        -5.8984   -8.2687    2.6141 C.3       1 <0>         0.1007
     35 C25        -3.1807   -7.8382    6.2983 C.3       1 <0>         0.1071
     36 C26         0.7029   -0.4998   -1.2465 C.3       1 <0>        -0.1391
     37 H2          0.9849    1.8999    0.0289 H         1 <0>         0.0556
     38 H3         -0.5602    1.8836   -0.8546 H         1 <0>         0.0564
     39 H4         -0.5526    1.8661    0.9252 H         1 <0>         0.0547
     40 H5         -1.9052   -0.3254    1.0041 H         1 <0>         0.0651
     41 H6         -2.0266   -0.0868   -0.7592 H         1 <0>         0.0677
     42 H7         -2.3874   -2.4857    0.0255 H         1 <0>         0.0721
     43 H8         -1.1139   -2.2786   -1.1972 H         1 <0>         0.0754
     44 H9          1.2064   -2.5491    2.0363 H         1 <0>         0.1027
     45 H10         1.7856   -0.3027    1.1627 H         1 <0>         0.0742
     46 H11         0.3268   -0.0279    2.1404 H         1 <0>         0.0770
     47 H12        -2.2151   -4.0145    2.2612 H         1 <0>         0.1295
     48 H13        -0.6839   -7.9400    1.6092 H         1 <0>         0.1270
     49 H14         1.1009   -7.0293    0.1858 H         1 <0>         0.1428
     50 H15         1.2890   -3.7115   -0.9694 H         1 <0>         0.4236
     51 H16         6.7940   -4.1883   -2.3588 H         1 <0>         0.2091
     52 H17        -3.2756   -5.7930    3.2588 H         1 <0>         0.0959
     53 H18        -1.3276   -8.1057    3.7025 H         1 <0>         0.0728
     54 H19        -1.4832   -6.6414    4.7081 H         1 <0>         0.0969
     55 H20        -4.0131   -7.0422    1.2783 H         1 <0>         0.0913
     56 H21        -2.8519   -8.3472    1.6361 H         1 <0>         0.0707
     57 H22        -6.4492   -8.7732    3.4079 H         1 <0>         0.0724
     58 H23        -6.2837   -7.2565    2.4911 H         1 <0>         0.0694
     59 H24        -6.0194   -8.8194    1.6812 H         1 <0>         0.0630
     60 H25        -3.7910   -6.9667    6.5354 H         1 <0>         0.0545
     61 H26        -3.6362   -8.7291    6.7306 H         1 <0>         0.0832
     62 H27        -2.1808   -7.7046    6.7110 H         1 <0>         0.0736
     63 H28         1.7249   -0.1211   -1.2552 H         1 <0>         0.0549
     64 H29         0.7191   -1.5896   -1.2547 H         1 <0>         0.0565
     65 H30         0.1738   -0.1377   -2.1280 H         1 <0>         0.0540
@<TRIPOS>BOND
     1    1    2 1
     2    1   37 1
     3    1   38 1
     4    1   39 1
     5    2    7 1
     6    2    3 1
     7    2   36 1
     8    3    4 1
     9    3   40 1
    10    3   41 1
    11    4    5 1
    12    4   42 1
    13    4   43 1
    14    5    6 2
    15    5    8 1
    16    6    7 1
    17    6   44 1
    18    7   45 1
    19    7   46 1
    20    8   13 ar
    21    8    9 ar
    22    9   10 ar
    23    9   47 1
    24   10   11 ar
    25   10   25 1
    26   11   12 ar
    27   11   48 1
    28   12   13 ar
    29   12   49 1
    30   13   14 1
    31   14   15 am
    32   14   50 1
    33   15   16 2
    34   15   17 1
    35   17   22 2
    36   17   18 1
    37   18   19 1
    38   18   20 1
    39   20   21 2
    40   20   51 1
    41   21   22 1
    42   21   23 1
    43   23   24 3
    44   25   33 1
    45   25   26 1
    46   25   52 1
    47   26   27 1
    48   26   53 1
    49   26   54 1
    50   27   28 1
    51   27   35 1
    52   28   29 2
    53   28   32 1
    54   29   30 1
    55   30   31 3
    56   32   33 1
    57   32   34 1
    58   33   55 1
    59   33   56 1
    60   34   57 1
    61   34   58 1
    62   34   59 1
    63   35   60 1
    64   35   61 1
    65   35   62 1
    66   36   63 1
    67   36   64 1
    68   36   65 1
@<TRIPOS>MOLECULE
CHEMBL461365
   39    41     0     0     0
SMALL
USER_CHARGES

@<TRIPOS>ATOM
      1 C1          1.1056   -0.4714    1.6269 C.ar      1 <0>        -0.1489
      2 C2          2.3360    0.1426    1.4585 C.ar      1 <0>        -0.0785
      3 C3          2.3892    1.3293    0.7317 C.ar      1 <0>         0.0970
      4 C4          1.2140    1.8505    0.2056 C.ar      1 <0>         0.0775
      5 N1          0.0639    1.2339    0.3895 N.ar      1 <0>        -0.4647
      6 C5         -0.0200    0.1089    1.0727 C.ar      1 <0>         0.0817
      7 N2          3.6079    1.9869    0.5348 N.am      1 <0>        -0.6646
      8 C6          4.7494    1.2766    0.4401 C.2       1 <0>         0.5575
      9 O1          4.7102    0.0615    0.4317 O.2       1 <0>        -0.4868
     10 C7          6.0483    1.9745    0.3464 C.ar      1 <0>        -0.1127
     11 C8          6.0966    3.3691    0.3616 C.ar      1 <0>        -0.0997
     12 C9          7.3184    4.0166    0.2733 C.ar      1 <0>         0.1458
     13 C10         8.4917    3.2777    0.1701 C.ar      1 <0>        -0.0765
     14 C11         8.4456    1.8970    0.1545 C.ar      1 <0>        -0.0955
     15 C12         7.2331    1.2407    0.2481 C.ar      1 <0>         0.0057
     16 Cl1         7.1816   -0.4945    0.2358 Cl        1 <0>        -0.0226
     17 N3          7.3716    5.4148    0.2877 N.am      1 <0>        -0.6680
     18 C13         8.4147    6.0436    0.8647 C.2       1 <0>         0.5655
     19 O2          9.2619    5.4007    1.4536 O.2       1 <0>        -0.5017
     20 C14         8.5285    7.5144    0.7816 C.ar      1 <0>        -0.1247
     21 C15         7.5539    8.2561    0.1107 C.ar      1 <0>        -0.0687
     22 C16         7.6650    9.6284    0.0361 C.ar      1 <0>        -0.1030
     23 C17         8.7407   10.2722    0.6248 C.ar      1 <0>        -0.0044
     24 C18         9.7118    9.5421    1.2918 C.ar      1 <0>        -0.0402
     25 C19         9.6079    8.1685    1.3783 C.ar      1 <0>        -0.0347
     26 Cl2        11.0571   10.3573    2.0263 Cl        1 <0>        -0.0307
     27 Cl3         8.8735   12.0004    0.5265 Cl        1 <0>        -0.0312
     28 H1          1.0273   -1.3951    2.1809 H         1 <0>         0.1405
     29 H2          3.2318   -0.2883    1.8807 H         1 <0>         0.1479
     30 H3          1.2430    2.7704   -0.3594 H         1 <0>         0.1569
     31 H4         -0.9816   -0.3658    1.2007 H         1 <0>         0.1594
     32 H5          3.6316    2.9542    0.4663 H         1 <0>         0.4109
     33 H6          5.1845    3.9420    0.4415 H         1 <0>         0.1391
     34 H7          9.4427    3.7850    0.1014 H         1 <0>         0.1514
     35 H8          9.3604    1.3287    0.0733 H         1 <0>         0.1495
     36 H9          6.6577    5.9314   -0.1176 H         1 <0>         0.4144
     37 H10         6.7146    7.7555   -0.3492 H         1 <0>         0.1434
     38 H11         6.9117   10.2025   -0.4829 H         1 <0>         0.1542
     39 H12        10.3621    7.6005    1.9027 H         1 <0>         0.1595
@<TRIPOS>BOND
     1    1    6 ar
     2    1    2 ar
     3    1   28 1
     4    2    3 ar
     5    2   29 1
     6    3    4 ar
     7    3    7 1
     8    4    5 ar
     9    4   30 1
    10    5    6 ar
    11    6   31 1
    12    7    8 am
    13    7   32 1
    14    8    9 2
    15    8   10 1
    16   10   15 ar
    17   10   11 ar
    18   11   12 ar
    19   11   33 1
    20   12   13 ar
    21   12   17 1
    22   13   14 ar
    23   13   34 1
    24   14   15 ar
    25   14   35 1
    26   15   16 1
    27   17   18 am
    28   17   36 1
    29   18   19 2
    30   18   20 1
    31   20   25 ar
    32   20   21 ar
    33   21   22 ar
    34   21   37 1
    35   22   23 ar
    36   22   38 1
    37   23   24 ar
    38   23   27 1
    39   24   25 ar
    40   24   26 1
    41   25   39 1
@<TRIPOS>MOLECULE
CHEMBL249751
   45    49     0     0     0
SMALL
USER_CHARGES

@<TRIPOS>ATOM
      1 C1          2.8287   -2.9868   -3.1962 C.ar      1 <0>        -0.0174
      2 C2          3.9671   -2.2132   -3.1667 C.ar      1 <0>        -0.1978
      3 C3          4.2128   -1.3758   -2.0813 C.ar      1 <0>         0.1694
      4 C4          3.2938   -1.3245   -1.0173 C.ar      1 <0>        -0.2210
      5 C5          3.8052   -0.4008   -0.0755 C.2       1 <0>         0.0888
      6 N1          4.9333    0.0691   -0.5233 N.2       1 <0>        -0.2602
      7 N2          5.2264   -0.5075   -1.7651 N.pl3     1 <0>        -0.5073
      8 H1          6.0095   -0.3246   -2.3074 H         1 <0>         0.4419
      9 C6          2.1354   -2.1210   -1.0631 C.ar      1 <0>         0.3046
     10 C7          1.9158   -2.9436   -2.1518 C.ar      1 <0>        -0.2401
     11 N3          1.2150   -2.0817   -0.0163 N.pl3     1 <0>        -0.6798
     12 C8          0.0297   -2.7779   -0.1145 C.ar      1 <0>         0.2837
     13 C9         -0.0350   -4.1587    0.1923 C.ar      1 <0>        -0.1114
     14 C10         1.1065   -4.8607    0.6066 C.ar      1 <0>        -0.0706
     15 C11         1.0207   -6.1870    0.8965 C.ar      1 <0>        -0.1033
     16 C12        -0.2018   -6.8655    0.7853 C.ar      1 <0>        -0.0165
     17 C13        -1.3434   -6.1976    0.3786 C.ar      1 <0>        -0.0817
     18 C14        -1.2757   -4.8299    0.0761 C.ar      1 <0>         0.1533
     19 N4         -2.3706   -4.1630   -0.3191 N.ar      1 <0>        -0.4688
     20 C15        -2.3394   -2.8878   -0.6087 C.ar      1 <0>         0.1698
     21 C16        -1.1540   -2.1407   -0.5161 C.ar      1 <0>        -0.2057
     22 C17        -1.1522   -0.7051   -0.8423 C.2       1 <0>         0.5666
     23 O1         -0.1055   -0.0856   -0.8545 O.2       1 <0>        -0.5165
     24 N5         -2.3103   -0.0774   -1.1274 N.am      1 <0>        -0.8497
     25 C18        -0.2716   -8.3121    1.1062 C.ar      1 <0>        -0.0084
     26 C19        -1.4754   -9.0142    0.9986 C.ar      1 <0>        -0.1608
     27 C20        -1.4959  -10.3591    1.3070 C.ar      1 <0>         0.1048
     28 N6         -0.4002  -10.9807    1.6983 N.ar      1 <0>        -0.4828
     29 C21         0.7556  -10.3553    1.8130 C.ar      1 <0>         0.1039
     30 C22         0.8661   -9.0116    1.5190 C.ar      1 <0>        -0.1605
     31 H2          2.6418   -3.6307   -4.0429 H         1 <0>         0.1294
     32 H3          4.6701   -2.2559   -3.9855 H         1 <0>         0.1241
     33 H4          3.3370   -0.1304    0.8594 H         1 <0>         0.1860
     34 H5          1.0274   -3.5565   -2.1903 H         1 <0>         0.1177
     35 H6          1.4089   -1.5643    0.7809 H         1 <0>         0.4181
     36 H7          2.0532   -4.3485    0.6949 H         1 <0>         0.1382
     37 H8          1.9026   -6.7229    1.2150 H         1 <0>         0.1371
     38 H9         -2.2812   -6.7266    0.2946 H         1 <0>         0.1466
     39 H10        -3.2485   -2.3966   -0.9227 H         1 <0>         0.1662
     40 H11        -3.1449   -0.5715   -1.1176 H         1 <0>         0.4004
     41 H12        -2.3091    0.8685   -1.3423 H         1 <0>         0.4090
     42 H13        -2.3763   -8.5115    0.6792 H         1 <0>         0.1406
     43 H14        -2.4214  -10.9100    1.2272 H         1 <0>         0.1605
     44 H15         1.6280  -10.9032    2.1373 H         1 <0>         0.1601
     45 H16         1.8166   -8.5070    1.6103 H         1 <0>         0.1397
@<TRIPOS>BOND
     1    1   10 ar
     2    1    2 ar
     3    1   31 1
     4    2    3 ar
     5    2   32 1
     6    3    7 1
     7    3    4 ar
     8    4    5 1
     9    4    9 ar
    10    5    6 2
    11    5   33 1
    12    6    7 1
    13    7    8 1
    14    9   10 ar
    15    9   11 1
    16   10   34 1
    17   11   12 1
    18   11   35 1
    19   12   21 ar
    20   12   13 ar
    21   13   18 ar
    22   13   14 ar
    23   14   15 ar
    24   14   36 1
    25   15   16 ar
    26   15   37 1
    27   16   17 ar
    28   16   25 1
    29   17   18 ar
    30   17   38 1
    31   18   19 ar
    32   19   20 ar
    33   20   21 ar
    34   20   39 1
    35   21   22 1
    36   22   23 2
    37   22   24 am
    38   24   40 1
    39   24   41 1
    40   25   30 ar
    41   25   26 ar
    42   26   27 ar
    43   26   42 1
    44   27   28 ar
    45   27   43 1
    46   28   29 ar
    47   29   30 ar
    48   29   44 1
    49   30   45 1
@<TRIPOS>MOLECULE
CHEMBL249751__1
   45    49     0     0     0
SMALL
USER_CHARGES

@<TRIPOS>ATOM
      1 C1          2.7854   -3.0226   -3.1909 C.ar      1 <0>        -0.0240
      2 C2          3.9282   -2.2938   -3.2167 C.ar      1 <0>        -0.1580
      3 C3          4.2421   -1.4243   -2.1500 C.ar      1 <0>         0.1402
      4 C4          3.3037   -1.3315   -1.0206 C.ar      1 <0>        -0.2271
      5 C5          3.8454   -0.4254   -0.1331 C.2       1 <0>         0.0979
      6 N1          5.0048    0.0102   -0.6456 N.pl3     1 <0>        -0.4337
      7 N2          5.2419   -0.6051   -1.8803 N.2       1 <0>        -0.3093
      8 H1          5.5925    0.6562   -0.2234 H         1 <0>         0.4441
      9 C6          2.0915   -2.1448   -1.0578 C.ar      1 <0>         0.2995
     10 C7          1.8771   -2.9565   -2.1360 C.ar      1 <0>        -0.2516
     11 N3          1.1709   -2.0941   -0.0140 N.pl3     1 <0>        -0.6799
     12 C8         -0.0223   -2.7764   -0.1138 C.ar      1 <0>         0.2854
     13 C9         -0.1036   -4.1562    0.1929 C.ar      1 <0>        -0.1113
     14 C10         1.0290   -4.8716    0.6087 C.ar      1 <0>        -0.0697
     15 C11         0.9273   -6.1969    0.8986 C.ar      1 <0>        -0.1036
     16 C12        -0.3031   -6.8608    0.7862 C.ar      1 <0>        -0.0164
     17 C13        -1.4362   -6.1795    0.3783 C.ar      1 <0>        -0.0820
     18 C14        -1.3519   -4.8129    0.0750 C.ar      1 <0>         0.1534
     19 N4         -2.4385   -4.1332   -0.3213 N.ar      1 <0>        -0.4689
     20 C15        -2.3920   -2.8584   -0.6104 C.ar      1 <0>         0.1697
     21 C16        -1.1979   -2.1253   -0.5171 C.ar      1 <0>        -0.2065
     22 C17        -1.1787   -0.6900   -0.8437 C.2       1 <0>         0.5678
     23 O1         -0.1247   -0.0831   -0.8561 O.2       1 <0>        -0.5183
     24 N5         -2.3291   -0.0484   -1.1290 N.am      1 <0>        -0.8497
     25 C18        -0.3901   -8.3065    1.1070 C.ar      1 <0>        -0.0083
     26 C19        -1.6021   -8.9944    0.9981 C.ar      1 <0>        -0.1608
     27 C20        -1.6387  -10.3389    1.3065 C.ar      1 <0>         0.1046
     28 N6         -0.5509  -10.9734    1.6993 N.ar      1 <0>        -0.4828
     29 C21         0.6120  -10.3616    1.8151 C.ar      1 <0>         0.1039
     30 C22         0.7387   -9.0194    1.5208 C.ar      1 <0>        -0.1605
     31 H2          2.5682   -3.6766   -4.0224 H         1 <0>         0.1229
     32 H3          4.6014   -2.3790   -4.0569 H         1 <0>         0.1249
     33 H4          3.4121   -0.1206    0.8080 H         1 <0>         0.1825
     34 H5          0.9831   -3.5613   -2.1713 H         1 <0>         0.1126
     35 H6          1.3696   -1.5785    0.7833 H         1 <0>         0.4154
     36 H7          1.9815   -4.3705    0.6984 H         1 <0>         0.1381
     37 H8          1.8025   -6.7431    1.2179 H         1 <0>         0.1370
     38 H9         -2.3803   -6.6973    0.2941 H         1 <0>         0.1465
     39 H10        -3.2950   -2.3563   -0.9251 H         1 <0>         0.1660
     40 H11        -3.1697   -0.5323   -1.1191 H         1 <0>         0.4005
     41 H12        -2.3165    0.8974   -1.3442 H         1 <0>         0.4088
     42 H13        -2.4967   -8.4810    0.6778 H         1 <0>         0.1406
     43 H14        -2.5705  -10.8789    1.2254 H         1 <0>         0.1605
     44 H15         1.4776  -10.9198    2.1403 H         1 <0>         0.1601
     45 H16         1.6950   -8.5260    1.6131 H         1 <0>         0.1397
@<TRIPOS>BOND
     1    1   10 ar
     2    1    2 ar
     3    1   31 1
     4    2    3 ar
     5    2   32 1
     6    3    4 ar
     7    3    7 2
     8    4    9 ar
     9    4    5 2
    10    5   33 1
    11    5    6 1
    12    6    8 1
    13    6    7 1
    14    9   10 ar
    15    9   11 1
    16   10   34 1
    17   11   12 1
    18   11   35 1
    19   12   21 ar
    20   12   13 ar
    21   13   18 ar
    22   13   14 ar
    23   14   15 ar
    24   14   36 1
    25   15   16 ar
    26   15   37 1
    27   16   17 ar
    28   16   25 1
    29   17   18 ar
    30   17   38 1
    31   18   19 ar
    32   19   20 ar
    33   20   21 ar
    34   20   39 1
    35   21   22 1
    36   22   23 2
    37   22   24 am
    38   24   40 1
    39   24   41 1
    40   25   30 ar
    41   25   26 ar
    42   26   27 ar
    43   26   42 1
    44   27   28 ar
    45   27   43 1
    46   28   29 ar
    47   29   30 ar
    48   29   44 1
    49   30   45 1
@<TRIPOS>MOLECULE
CHEMBL400289
   46    50     0     0     0
SMALL
USER_CHARGES

@<TRIPOS>ATOM
      1 C1         -1.3789    0.8676    0.5422 C.ar      1 <0>        -0.1479
      2 C2         -2.4735    0.7671    1.3922 C.ar      1 <0>        -0.0519
      3 C3         -2.8161   -0.4305    1.9529 C.ar      1 <0>        -0.1423
      4 C4         -2.0625   -1.5681    1.6725 C.ar      1 <0>         0.1512
      5 C5         -0.9535   -1.4675    0.8114 C.ar      1 <0>        -0.1784
      6 C6         -0.6228   -0.2307    0.2498 C.ar      1 <0>        -0.0383
      7 C7         -0.3813   -2.8117    0.7198 C.2       1 <0>         0.3255
      8 N1         -1.1064   -3.6025    1.4659 N.2       1 <0>        -0.2898
      9 N2         -2.1430   -2.8791    2.0642 N.pl3     1 <0>        -0.4897
     10 H1         -2.8128   -3.2469    2.6617 H         1 <0>         0.4493
     11 N3          0.7379   -3.1825   -0.0306 N.pl3     1 <0>        -0.6142
     12 C8          1.2390   -4.4622    0.0662 C.ar      1 <0>         0.3970
     13 C9          0.4373   -5.5872   -0.2452 C.ar      1 <0>        -0.1051
     14 C10        -0.8927   -5.4327   -0.6627 C.ar      1 <0>        -0.0190
     15 C11        -1.6443   -6.5279   -0.9570 C.ar      1 <0>        -0.0982
     16 C12        -1.1026   -7.8169   -0.8476 C.ar      1 <0>         0.0651
     17 C13         0.2067   -7.9982   -0.4381 C.ar      1 <0>        -0.1447
     18 C14         0.9976   -6.8818   -0.1301 C.ar      1 <0>         0.1683
     19 N4          2.2696   -7.0350    0.2678 N.ar      1 <0>        -0.4736
     20 C15         3.0325   -6.0138    0.5611 C.ar      1 <0>         0.2505
     21 C16         2.5624   -4.6937    0.4710 C.ar      1 <0>        -0.2333
     22 C17         3.4472   -3.5648    0.8024 C.2       1 <0>         0.5753
     23 O1          3.0066   -2.4312    0.8184 O.2       1 <0>        -0.5049
     24 N5          4.7454   -3.7874    1.0881 N.am      1 <0>        -0.8400
     25 C18        -1.9409   -8.9967   -1.1732 C.ar      1 <0>        -0.0412
     26 C19        -1.4285  -10.2928   -1.0673 C.ar      1 <0>        -0.1501
     27 C20        -2.2427  -11.3621   -1.3801 C.ar      1 <0>         0.1098
     28 N6         -3.4872  -11.1729   -1.7745 N.ar      1 <0>        -0.4652
     29 C21        -4.0092   -9.9667   -1.8876 C.ar      1 <0>         0.1114
     30 C22        -3.2666   -8.8427   -1.5888 C.ar      1 <0>        -0.1457
     31 H2         -1.1268    1.8225    0.1052 H         1 <0>         0.1353
     32 H3         -3.0603    1.6466    1.6126 H         1 <0>         0.1385
     33 H4         -3.6690   -0.4952    2.6122 H         1 <0>         0.1350
     34 H5          0.2263   -0.1447   -0.4121 H         1 <0>         0.1296
     35 H6          1.1619   -2.5389   -0.6196 H         1 <0>         0.4495
     36 H7         -1.3202   -4.4448   -0.7502 H         1 <0>         0.1553
     37 H8         -2.6680   -6.4035   -1.2777 H         1 <0>         0.1568
     38 H9          0.6172   -8.9938   -0.3564 H         1 <0>         0.1637
     39 H10         4.0502   -6.1902    0.8768 H         1 <0>         0.2121
     40 H11         5.0967   -4.6915    1.0754 H         1 <0>         0.3996
     41 H12         5.3283   -3.0435    1.3065 H         1 <0>         0.4229
     42 H13        -0.4103  -10.4550   -0.7458 H         1 <0>         0.1404
     43 H14        -1.8558  -12.3674   -1.3014 H         1 <0>         0.1672
     44 H15        -5.0328   -9.8577   -2.2145 H         1 <0>         0.1683
     45 H16        -3.7017   -7.8584   -1.6792 H         1 <0>         0.1444
     46 H17         2.6347   -7.9307    0.3405 H         1 <0>         0.4512
@<TRIPOS>BOND
     1    1    6 ar
     2    1    2 ar
     3    1   31 1
     4    2    3 ar
     5    2   32 1
     6    3    4 ar
     7    3   33 1
     8    4    9 1
     9    4    5 ar
    10    5    6 ar
    11    5    7 1
    12    6   34 1
    13    7    8 2
    14    7   11 1
    15    8    9 1
    16    9   10 1
    17   11   12 1
    18   11   35 1
    19   12   21 ar
    20   12   13 ar
    21   13   18 ar
    22   13   14 ar
    23   14   15 ar
    24   14   36 1
    25   15   16 ar
    26   15   37 1
    27   16   17 ar
    28   16   25 1
    29   17   18 ar
    30   17   38 1
    31   18   19 ar
    32   19   20 ar
    33   19   46 1
    34   20   21 ar
    35   20   39 1
    36   21   22 1
    37   22   23 2
    38   22   24 am
    39   24   40 1
    40   24   41 1
    41   25   30 ar
    42   25   26 ar
    43   26   27 ar
    44   26   42 1
    45   27   28 ar
    46   27   43 1
    47   28   29 ar
    48   29   30 ar
    49   29   44 1
    50   30   45 1
@<TRIPOS>MOLECULE
CHEMBL400289__1
   46    50     0     0     0
SMALL
USER_CHARGES

@<TRIPOS>ATOM
      1 C1         -1.2449    0.8963    0.6349 C.ar      1 <0>        -0.1448
      2 C2         -2.1909    0.8559    1.6610 C.ar      1 <0>        -0.0603
      3 C3         -2.4438   -0.2820    2.3553 C.ar      1 <0>        -0.1117
      4 C4         -1.7368   -1.4627    2.0397 C.ar      1 <0>         0.1342
      5 C5         -0.7408   -1.4175    0.9584 C.ar      1 <0>        -0.2045
      6 C6         -0.5297   -0.2024    0.2800 C.ar      1 <0>        -0.0440
      7 C7         -0.2062   -2.6998    0.8649 C.2       1 <0>         0.3452
      8 N1         -0.8091   -3.4617    1.7933 N.pl3     1 <0>        -0.4554
      9 N2         -1.7413   -2.6986    2.5051 N.2       1 <0>        -0.2844
     10 H1         -0.6254   -4.4017    1.9471 H         1 <0>         0.4322
     11 N3          0.7719   -3.1158   -0.0260 N.pl3     1 <0>        -0.6395
     12 C8          1.2938   -4.3877    0.0683 C.ar      1 <0>         0.3672
     13 C9          0.5100   -5.5249   -0.2437 C.ar      1 <0>        -0.1178
     14 C10        -0.8230   -5.3912   -0.6593 C.ar      1 <0>        -0.0494
     15 C11        -1.5572   -6.4979   -0.9542 C.ar      1 <0>        -0.0847
     16 C12        -0.9947   -7.7783   -0.8474 C.ar      1 <0>         0.0703
     17 C13         0.3177   -7.9391   -0.4395 C.ar      1 <0>        -0.1404
     18 C14         1.0911   -6.8106   -0.1313 C.ar      1 <0>         0.1677
     19 N4          2.3658   -6.9440    0.2652 N.ar      1 <0>        -0.4640
     20 C15         3.1123   -5.9111    0.5599 C.ar      1 <0>         0.2493
     21 C16         2.6214   -4.5985    0.4711 C.ar      1 <0>        -0.2142
     22 C17         3.4883   -3.4561    0.8031 C.2       1 <0>         0.5692
     23 O1          3.0301   -2.3294    0.8192 O.2       1 <0>        -0.4925
     24 N5          4.7897   -3.6584    1.0892 N.am      1 <0>        -0.8386
     25 C18        -1.8143   -8.9708   -1.1742 C.ar      1 <0>        -0.0472
     26 C19        -1.2810  -10.2587   -1.0709 C.ar      1 <0>        -0.1480
     27 C20        -2.0784  -11.3405   -1.3842 C.ar      1 <0>         0.1107
     28 N6         -3.3264  -11.1707   -1.7762 N.ar      1 <0>        -0.4618
     29 C21        -3.8678   -9.9729   -1.8869 C.ar      1 <0>         0.1130
     30 C22        -3.1427   -8.8375   -1.5883 C.ar      1 <0>        -0.1431
     31 H2         -1.0807    1.8240    0.1069 H         1 <0>         0.1292
     32 H3         -2.7358    1.7547    1.9089 H         1 <0>         0.1342
     33 H4         -3.1810   -0.2846    3.1446 H         1 <0>         0.1360
     34 H5          0.1960   -0.1443   -0.5177 H         1 <0>         0.1225
     35 H6          1.0887   -2.5114   -0.7154 H         1 <0>         0.4521
     36 H7         -1.2664   -4.4102   -0.7447 H         1 <0>         0.1620
     37 H8         -2.5833   -6.3895   -1.2734 H         1 <0>         0.1632
     38 H9          0.7442   -8.9281   -0.3595 H         1 <0>         0.1679
     39 H10         4.1328   -6.0716    0.8751 H         1 <0>         0.2163
     40 H11         5.1551   -4.5569    1.0763 H         1 <0>         0.3994
     41 H12         5.3610   -2.9056    1.3079 H         1 <0>         0.4248
     42 H13        -0.2599  -10.4050   -0.7509 H         1 <0>         0.1407
     43 H14        -1.6751  -12.3395   -1.3077 H         1 <0>         0.1684
     44 H15        -4.8937   -9.8799   -2.2115 H         1 <0>         0.1701
     45 H16        -3.5936   -7.8602   -1.6770 H         1 <0>         0.1457
     46 H17         2.7454   -7.8338    0.3357 H         1 <0>         0.4545
@<TRIPOS>BOND
     1    1    6 ar
     2    1    2 ar
     3    1   31 1
     4    2    3 ar
     5    2   32 1
     6    3    4 ar
     7    3   33 1
     8    4    5 ar
     9    4    9 2
    10    5    6 ar
    11    5    7 2
    12    6   34 1
    13    7   11 1
    14    7    8 1
    15    8   10 1
    16    8    9 1
    17   11   12 1
    18   11   35 1
    19   12   21 ar
    20   12   13 ar
    21   13   18 ar
    22   13   14 ar
    23   14   15 ar
    24   14   36 1
    25   15   16 ar
    26   15   37 1
    27   16   17 ar
    28   16   25 1
    29   17   18 ar
    30   17   38 1
    31   18   19 ar
    32   19   20 ar
    33   19   46 1
    34   20   21 ar
    35   20   39 1
    36   21   22 1
    37   22   23 2
    38   22   24 am
    39   24   40 1
    40   24   41 1
    41   25   30 ar
    42   25   26 ar
    43   26   27 ar
    44   26   42 1
    45   27   28 ar
    46   27   43 1
    47   28   29 ar
    48   29   30 ar
    49   29   44 1
    50   30   45 1
@<TRIPOS>MOLECULE
CHEMBL347537
   55    59     0     0     0
SMALL
USER_CHARGES

@<TRIPOS>ATOM
      1 C1          4.7101   -0.1453   -5.8900 C.ar      1 <0>        -0.1199
      2 C2          4.3644   -0.5147   -4.5918 C.ar      1 <0>        -0.0954
      3 C3          5.0045    0.0234   -3.5152 C.ar      1 <0>        -0.1164
      4 C4          6.0238    0.9607   -3.7170 C.ar      1 <0>        -0.0105
      5 C5          6.3779    1.3387   -5.0374 C.ar      1 <0>        -0.1122
      6 C6          5.6971    0.7638   -6.1226 C.ar      1 <0>        -0.0853
      7 C7          7.4038    2.2805   -5.2180 C.ar      1 <0>         0.1453
      8 N1          8.0195    2.7970   -4.1798 N.ar      1 <0>        -0.4829
      9 C8          7.7213    2.4729   -2.9315 C.ar      1 <0>         0.0983
     10 C9          6.7264    1.5553   -2.6402 C.ar      1 <0>        -0.0853
     11 C10         6.4052    1.2032   -1.2374 C.ar      1 <0>        -0.0229
     12 C11         5.0819    1.2252   -0.7960 C.ar      1 <0>        -0.1217
     13 C12         4.7847    0.8969    0.5112 C.ar      1 <0>        -0.0954
     14 C13         5.7948    0.5451    1.3868 C.ar      1 <0>        -0.1408
     15 C14         7.1158    0.5198    0.9562 C.ar      1 <0>         0.1514
     16 C15         7.4231    0.8435   -0.3567 C.ar      1 <0>        -0.1039
     17 N2          8.1348    0.1636    1.8457 N.am      1 <0>        -0.6690
     18 C16         9.3544    0.7261    1.7334 C.2       1 <0>         0.5756
     19 O1          9.5435    1.6110    0.9208 O.2       1 <0>        -0.5312
     20 C17        10.4592    0.2688    2.5954 C.ar      1 <0>        -0.2337
     21 C18        10.2813   -0.8270    3.4443 C.ar      1 <0>        -0.0333
     22 C19        11.3178   -1.2497    4.2471 C.ar      1 <0>        -0.1896
     23 C20        12.5386   -0.5938    4.2182 C.ar      1 <0>        -0.0345
     24 C21        12.7301    0.4895    3.3857 C.ar      1 <0>        -0.2116
     25 C22        11.6982    0.9275    2.5646 C.ar      1 <0>         0.2827
     26 N3         11.8902    2.0144    1.7217 N.pl3     1 <0>        -0.7210
     27 C23        13.1325    2.7874    1.7946 C.3       1 <0>         0.1559
     28 C24        13.0896    3.9037    0.7831 C.ar      1 <0>        -0.0628
     29 C25        13.5581    3.7104   -0.5075 C.ar      1 <0>        -0.1533
     30 C26        13.5028    4.7575   -1.4079 C.ar      1 <0>         0.1009
     31 N4         13.0123    5.9285   -1.0513 N.ar      1 <0>        -0.4775
     32 C27        12.5581    6.1482    0.1670 C.ar      1 <0>         0.0998
     33 C28        12.5755    5.1467    1.1192 C.ar      1 <0>        -0.1533
     34 H1          4.1901   -0.5904   -6.7254 H         1 <0>         0.1285
     35 H2          3.5775   -1.2379   -4.4362 H         1 <0>         0.1282
     36 H3          4.7267   -0.2711   -2.5140 H         1 <0>         0.1353
     37 H4          5.9545    1.0404   -7.1344 H         1 <0>         0.1351
     38 H5          7.6879    2.5812   -6.2156 H         1 <0>         0.1646
     39 H6          8.2668    2.9345   -2.1218 H         1 <0>         0.1558
     40 H7          4.2900    1.4996   -1.4771 H         1 <0>         0.1269
     41 H8          3.7598    0.9153    0.8511 H         1 <0>         0.1316
     42 H9          5.5567    0.2894    2.4087 H         1 <0>         0.1283
     43 H10         8.4487    0.8205   -0.6946 H         1 <0>         0.1373
     44 H11         7.9637   -0.4882    2.5434 H         1 <0>         0.4124
     45 H12         9.3322   -1.3415    3.4712 H         1 <0>         0.1232
     46 H13        11.1785   -2.0965    4.9028 H         1 <0>         0.1268
     47 H14        13.3449   -0.9327    4.8517 H         1 <0>         0.1280
     48 H15        13.6844    0.9951    3.3691 H         1 <0>         0.1293
     49 H16        11.2017    2.2618    1.0848 H         1 <0>         0.4214
     50 H17        13.2411    3.2072    2.7946 H         1 <0>         0.0761
     51 H18        13.9793    2.1353    1.5803 H         1 <0>         0.0761
     52 H19        13.9616    2.7539   -0.8053 H         1 <0>         0.1360
     53 H20        13.8657    4.6150   -2.4151 H         1 <0>         0.1587
     54 H21        12.1640    7.1208    0.4224 H         1 <0>         0.1583
     55 H22        12.1974    5.3313    2.1139 H         1 <0>         0.1357
@<TRIPOS>BOND
     1    1    6 ar
     2    1    2 ar
     3    1   34 1
     4    2    3 ar
     5    2   35 1
     6    3    4 ar
     7    3   36 1
     8    4   10 ar
     9    4    5 ar
    10    5    6 ar
    11    5    7 ar
    12    6   37 1
    13    7    8 ar
    14    7   38 1
    15    8    9 ar
    16    9   10 ar
    17    9   39 1
    18   10   11 1
    19   11   16 ar
    20   11   12 ar
    21   12   13 ar
    22   12   40 1
    23   13   14 ar
    24   13   41 1
    25   14   15 ar
    26   14   42 1
    27   15   16 ar
    28   15   17 1
    29   16   43 1
    30   17   18 am
    31   17   44 1
    32   18   19 2
    33   18   20 1
    34   20   25 ar
    35   20   21 ar
    36   21   22 ar
    37   21   45 1
    38   22   23 ar
    39   22   46 1
    40   23   24 ar
    41   23   47 1
    42   24   25 ar
    43   24   48 1
    44   25   26 1
    45   26   27 1
    46   26   49 1
    47   27   28 1
    48   27   50 1
    49   27   51 1
    50   28   33 ar
    51   28   29 ar
    52   29   30 ar
    53   29   52 1
    54   30   31 ar
    55   30   53 1
    56   31   32 ar
    57   32   33 ar
    58   32   54 1
    59   33   55 1
@<TRIPOS>MOLECULE
CHEMBL271259
   36    39     0     0     0
SMALL
USER_CHARGES

@<TRIPOS>ATOM
      1 C1         -0.0184    1.5028    0.0103 C.3       1 <0>        -0.0875
      2 C2          0.0021   -0.0041    0.0020 C.2       1 <0>         0.1066
      3 C3          0.0080   -0.8179   -1.1383 C.2       1 <0>        -0.2422
      4 C4          0.0283   -2.1188   -0.7268 C.2       1 <0>         0.1288
      5 O1          0.0350   -2.1207    0.6202 O.3       1 <0>        -0.0672
      6 N1          0.0230   -0.7733    1.0554 N.2       1 <0>        -0.3112
      7 C5          0.0401   -3.3057   -1.5977 C.2       1 <0>        -0.1111
      8 C6          1.1398   -4.1651   -1.6083 C.2       1 <0>         0.0960
      9 C7          1.0953   -5.3336   -2.4967 C.ar      1 <0>        -0.0695
     10 C8          2.1575   -6.2417   -2.5638 C.ar      1 <0>        -0.0790
     11 C9          2.0516   -7.3190   -3.4192 C.ar      1 <0>         0.1396
     12 N2          0.9733   -7.4971   -4.1632 N.ar      1 <0>        -0.4306
     13 C10        -0.0512   -6.6712   -4.1353 C.ar      1 <0>         0.1047
     14 C11        -0.0358   -5.5554   -3.3027 C.ar      1 <0>         0.1405
     15 N3         -1.1038   -4.6833   -3.2648 N.am      1 <0>        -0.6170
     16 H1         -1.8745   -4.8545   -3.8283 H         1 <0>         0.4278
     17 C12        -1.1052   -3.6053   -2.4615 C.2       1 <0>         0.5562
     18 O2         -2.0714   -2.8636   -2.4550 O.2       1 <0>        -0.5013
     19 Cl1         3.3565   -8.4594   -3.5209 Cl        1 <0>        -0.0129
     20 C13         2.3144   -3.9066   -0.7511 C.ar      1 <0>        -0.0920
     21 C14         3.5512   -3.6068   -1.3273 C.ar      1 <0>        -0.0909
     22 C15         4.6439   -3.3666   -0.5208 C.ar      1 <0>        -0.1195
     23 C16         4.5171   -3.4219    0.8562 C.ar      1 <0>        -0.0977
     24 C17         3.2950   -3.7183    1.4339 C.ar      1 <0>        -0.1146
     25 C18         2.1925   -3.9551    0.6397 C.ar      1 <0>        -0.0744
     26 H2          1.0042    1.8801    0.0026 H         1 <0>         0.0908
     27 H3         -0.5455    1.8639   -0.8728 H         1 <0>         0.0895
     28 H4         -0.5286    1.8543    0.9071 H         1 <0>         0.0839
     29 H5         -0.0022   -0.4759   -2.1627 H         1 <0>         0.1604
     30 H6          3.0416   -6.1022   -1.9593 H         1 <0>         0.1618
     31 H7         -0.9096   -6.8603   -4.7628 H         1 <0>         0.1828
     32 H8          3.6516   -3.5637   -2.4018 H         1 <0>         0.1279
     33 H9          5.6008   -3.1351   -0.9648 H         1 <0>         0.1312
     34 H10         5.3762   -3.2332    1.4830 H         1 <0>         0.1287
     35 H11         3.2032   -3.7598    2.5092 H         1 <0>         0.1313
     36 H12         1.2383   -4.1818    1.0919 H         1 <0>         0.1303
@<TRIPOS>BOND
     1    1    2 1
     2    1   26 1
     3    1   27 1
     4    1   28 1
     5    2    6 2
     6    2    3 1
     7    3    4 2
     8    3   29 1
     9    4    5 1
    10    4    7 1
    11    5    6 1
    12    7   17 1
    13    7    8 2
    14    8    9 1
    15    8   20 1
    16    9   14 ar
    17    9   10 ar
    18   10   11 ar
    19   10   30 1
    20   11   12 ar
    21   11   19 1
    22   12   13 ar
    23   13   14 ar
    24   13   31 1
    25   14   15 1
    26   15   16 1
    27   15   17 am
    28   17   18 2
    29   20   25 ar
    30   20   21 ar
    31   21   22 ar
    32   21   32 1
    33   22   23 ar
    34   22   33 1
    35   23   24 ar
    36   23   34 1
    37   24   25 ar
    38   24   35 1
    39   25   36 1
@<TRIPOS>MOLECULE
CHEMBL271259__1
   35    38     0     0     0
SMALL
USER_CHARGES

@<TRIPOS>ATOM
      1 C1         -0.0184    1.5028    0.0103 C.3       1 <0>        -0.0797
      2 C2          0.0021   -0.0041    0.0020 C.2       1 <0>         0.1033
      3 C3          0.0080   -0.8185   -1.1387 C.2       1 <0>        -0.2728
      4 C4          0.0283   -2.1180   -0.7277 C.2       1 <0>         0.1758
      5 O1          0.0349   -2.1205    0.6191 O.3       1 <0>        -0.0777
      6 N1          0.0230   -0.7733    1.0551 N.2       1 <0>        -0.3410
      7 C5          0.0404   -3.3065   -1.6000 C.ar      1 <0>        -0.1376
      8 C6         -1.0453   -4.1920   -1.6059 C.ar      1 <0>         0.0532
      9 C7         -0.9729   -5.3143   -2.4655 C.ar      1 <0>        -0.1589
     10 C8         -2.0065   -6.2585   -2.5455 C.ar      1 <0>        -0.0757
     11 C9         -1.8644   -7.3152   -3.3989 C.ar      1 <0>         0.0829
     12 N2         -0.7795   -7.4643   -4.1455 N.ar      1 <0>        -0.4592
     13 C10         0.2236   -6.6182   -4.1191 C.ar      1 <0>         0.1323
     14 C11         0.1766   -5.4965   -3.2743 C.ar      1 <0>         0.1713
     15 N3          1.1825   -4.6163   -3.2255 N.ar      1 <0>        -0.5689
     16 C12         1.1433   -3.5619   -2.4429 C.ar      1 <0>         0.4564
     17 O2          2.1899   -2.7013   -2.4406 O.3       1 <0>        -0.6604
     18 Cl1        -3.1356   -8.4924   -3.5080 Cl        1 <0>        -0.0647
     19 C13        -2.2250   -3.9626   -0.7441 C.ar      1 <0>        -0.0451
     20 C14        -2.5266   -4.8572    0.2842 C.ar      1 <0>        -0.0955
     21 C15        -3.6283   -4.6371    1.0847 C.ar      1 <0>        -0.1184
     22 C16        -4.4335   -3.5325    0.8702 C.ar      1 <0>        -0.1177
     23 C17        -4.1404   -2.6421   -0.1476 C.ar      1 <0>        -0.1186
     24 C18        -3.0385   -2.8473   -0.9517 C.ar      1 <0>        -0.0970
     25 H1          1.0042    1.8801    0.0026 H         1 <0>         0.0856
     26 H2         -0.5455    1.8639   -0.8728 H         1 <0>         0.0835
     27 H3         -0.5286    1.8543    0.9071 H         1 <0>         0.0761
     28 H4         -0.0018   -0.4766   -2.1632 H         1 <0>         0.1525
     29 H5         -2.8971   -6.1524   -1.9439 H         1 <0>         0.1332
     30 H6          1.0863   -6.7846   -4.7471 H         1 <0>         0.1706
     31 H7         -1.8991   -5.7199    0.4524 H         1 <0>         0.1244
     32 H8         -3.8629   -5.3286    1.8804 H         1 <0>         0.1237
     33 H9         -5.2948   -3.3647    1.4998 H         1 <0>         0.1203
     34 H10        -4.7734   -1.7822   -0.3101 H         1 <0>         0.1219
     35 H11        -2.8081   -2.1490   -1.7427 H         1 <0>         0.1217
@<TRIPOS>BOND
     1    1    2 1
     2    1   25 1
     3    1   26 1
     4    1   27 1
     5    2    6 2
     6    2    3 1
     7    3    4 2
     8    3   28 1
     9    4    5 1
    10    4    7 1
    11    5    6 1
    12    7   16 ar
    13    7    8 ar
    14    8    9 ar
    15    8   19 1
    16    9   14 ar
    17    9   10 ar
    18   10   11 ar
    19   10   29 1
    20   11   12 ar
    21   11   18 1
    22   12   13 ar
    23   13   14 ar
    24   13   30 1
    25   14   15 ar
    26   15   16 ar
    27   16   17 1
    28   19   24 ar
    29   19   20 ar
    30   20   21 ar
    31   20   31 1
    32   21   22 ar
    33   21   32 1
    34   22   23 ar
    35   22   33 1
    36   23   24 ar
    37   23   34 1
    38   24   35 1
@<TRIPOS>MOLECULE
CHEMBL436651
   44    47     0     0     0
SMALL
USER_CHARGES

@<TRIPOS>ATOM
      1 C1         -0.0839    1.4585    0.1132 C.3       1 <0>        -0.0871
      2 C2         -0.0443   -0.0475    0.0786 C.2       1 <0>         0.1065
      3 C3         -0.0326   -0.8410   -1.0755 C.2       1 <0>        -0.2535
      4 C4          0.0051   -2.1489   -0.6868 C.2       1 <0>         0.1425
      5 O1          0.0165   -2.1741    0.6601 O.3       1 <0>        -0.0664
      6 N1         -0.0095   -0.8347    1.1185 N.2       1 <0>        -0.3168
      7 C5          0.0281   -3.3198   -1.5779 C.2       1 <0>        -0.1428
      8 C6          1.1404   -4.1675   -1.6077 C.2       1 <0>         0.1021
      9 C7          1.1098   -5.3234   -2.5173 C.ar      1 <0>        -0.1128
     10 C8          2.1951   -6.2025   -2.5858 C.ar      1 <0>        -0.0367
     11 C9          2.1484   -7.2794   -3.4429 C.ar      1 <0>        -0.0675
     12 C10         1.0296   -7.4946   -4.2377 C.ar      1 <0>        -0.0471
     13 C11        -0.0468   -6.6368   -4.1813 C.ar      1 <0>        -0.1500
     14 C12        -0.0216   -5.5418   -3.3216 C.ar      1 <0>         0.1991
     15 N2         -1.1002   -4.6814   -3.2631 N.am      1 <0>        -0.6263
     16 H1         -1.8705   -4.8519   -3.8274 H         1 <0>         0.4233
     17 C13        -1.1147   -3.6183   -2.4418 C.2       1 <0>         0.5571
     18 O2         -2.0908   -2.8896   -2.4198 O.2       1 <0>        -0.5118
     19 Cl1         3.4941   -8.3726   -3.5311 Cl        1 <0>        -0.0543
     20 C14         2.3082   -3.9102   -0.7536 C.2       1 <0>        -0.1176
     21 C15         3.0150   -2.8248   -0.9977 C.2       1 <0>        -0.0993
     22 C16         4.1775   -2.3905   -0.1527 C.3       1 <0>        -0.0981
     23 C17         5.1661   -3.5471    0.0349 C.3       1 <0>        -0.1160
     24 C18         4.7959   -4.2779    1.3236 C.3       1 <0>        -0.1242
     25 C19         3.2790   -4.2226    1.5278 C.3       1 <0>        -0.1238
     26 C20         2.6038   -4.8997    0.3355 C.3       1 <0>        -0.0719
     27 H2          0.9338    1.8489    0.1082 H         1 <0>         0.0900
     28 H3         -0.6191    1.8282   -0.7615 H         1 <0>         0.0883
     29 H4         -0.5949    1.7879    1.0179 H         1 <0>         0.0828
     30 H5         -0.0506   -0.4813   -2.0937 H         1 <0>         0.1579
     31 H6          3.0664   -6.0375   -1.9693 H         1 <0>         0.1500
     32 H7          1.0036   -8.3422   -4.9064 H         1 <0>         0.1478
     33 H8         -0.9111   -6.8139   -4.8042 H         1 <0>         0.1488
     34 H9          2.7445   -2.2174   -1.8487 H         1 <0>         0.1095
     35 H10         4.6853   -1.5577   -0.6392 H         1 <0>         0.0702
     36 H11         3.8131   -2.0663    0.8221 H         1 <0>         0.0880
     37 H12         5.0969   -4.2320   -0.8102 H         1 <0>         0.0655
     38 H13         6.1807   -3.1561    0.1113 H         1 <0>         0.0686
     39 H14         5.1153   -5.3178    1.2558 H         1 <0>         0.0646
     40 H15         5.2933   -3.8001    2.1676 H         1 <0>         0.0639
     41 H16         3.0126   -4.7466    2.4457 H         1 <0>         0.0696
     42 H17         2.9544   -3.1839    1.5899 H         1 <0>         0.0768
     43 H18         1.6717   -5.3592    0.6642 H         1 <0>         0.0719
     44 H19         3.2654   -5.6735   -0.0539 H         1 <0>         0.0788
@<TRIPOS>BOND
     1    1    2 1
     2    1   27 1
     3    1   28 1
     4    1   29 1
     5    2    6 2
     6    2    3 1
     7    3    4 2
     8    3   30 1
     9    4    5 1
    10    4    7 1
    11    5    6 1
    12    7   17 1
    13    7    8 2
    14    8    9 1
    15    8   20 1
    16    9   14 ar
    17    9   10 ar
    18   10   11 ar
    19   10   31 1
    20   11   12 ar
    21   11   19 1
    22   12   13 ar
    23   12   32 1
    24   13   14 ar
    25   13   33 1
    26   14   15 1
    27   15   16 1
    28   15   17 am
    29   17   18 2
    30   20   26 1
    31   20   21 2
    32   21   22 1
    33   21   34 1
    34   22   23 1
    35   22   35 1
    36   22   36 1
    37   23   24 1
    38   23   37 1
    39   23   38 1
    40   24   25 1
    41   24   39 1
    42   24   40 1
    43   25   26 1
    44   25   41 1
    45   25   42 1
    46   26   43 1
    47   26   44 1
@<TRIPOS>MOLECULE
CHEMBL256893
   70    75     0     0     0
SMALL
USER_CHARGES

@<TRIPOS>ATOM
      1 C1         -5.5726   -8.5659   -0.4377 C.3       1 <0>        -0.0458
      2 N1         -4.4582   -7.6289   -0.2423 N.4       1 <0>        -0.3884
      3 C2         -3.3242   -8.0352   -1.0827 C.3       1 <0>        -0.0022
      4 C3         -2.1697   -7.0487   -0.8937 C.3       1 <0>         0.0246
      5 N2         -1.7715   -7.0304    0.5210 N.3       1 <0>        -0.5344
      6 C4         -2.9037   -6.6494    1.3771 C.3       1 <0>         0.0195
      7 C5         -4.0522   -7.6392    1.1693 C.3       1 <0>        -0.0023
      8 C6         -0.6261   -6.1356    0.7339 C.3       1 <0>         0.1005
      9 C7         -0.0926   -6.3261    2.1304 C.ar      1 <0>        -0.1124
     10 C8         -0.5933   -5.5640    3.1701 C.ar      1 <0>        -0.0962
     11 C9         -0.1069   -5.7363    4.4511 C.ar      1 <0>        -0.1099
     12 C10         0.8862   -6.6764    4.6946 C.ar      1 <0>         0.1729
     13 C11         1.3869   -7.4402    3.6481 C.ar      1 <0>        -0.1429
     14 C12         0.8924   -7.2665    2.3704 C.ar      1 <0>        -0.0706
     15 N3          1.3811   -6.8531    5.9903 N.pl3     1 <0>        -0.6275
     16 C13         0.5479   -6.6771    7.0778 C.ar      1 <0>         0.6099
     17 N4         -0.7433   -6.4492    6.8632 N.ar      1 <0>        -0.5713
     18 C14        -1.5810   -6.2748    7.8702 C.ar      1 <0>         0.2807
     19 C15        -1.0783   -6.3354    9.1711 C.ar      1 <0>        -0.3342
     20 C16        -1.9390   -6.1535   10.3489 C.2       1 <0>         0.4544
     21 O1         -3.1339   -5.9410   10.2371 O.2       1 <0>        -0.4793
     22 C17        -1.2932   -6.2398   11.6707 C.2       1 <0>        -0.3226
     23 C18         0.0616   -6.4825   11.7353 C.2       1 <0>         0.2533
     24 N5          0.8155   -6.6435   10.6337 N.pl3     1 <0>        -0.4228
     25 C19         0.2964   -6.5788    9.3645 C.ar      1 <0>         0.4679
     26 N6          1.0656   -6.7475    8.2945 N.ar      1 <0>        -0.5816
     27 C20         2.1856   -6.8869   10.7873 C.ar      1 <0>         0.0887
     28 C21         2.6233   -8.0882   11.3301 C.ar      1 <0>        -0.0993
     29 C22         3.9746   -8.3230   11.4786 C.ar      1 <0>        -0.0941
     30 C23         4.8978   -7.3657   11.0893 C.ar      1 <0>        -0.0724
     31 C24         4.4651   -6.1687   10.5488 C.ar      1 <0>        -0.0853
     32 C25         3.1108   -5.9314   10.3926 C.ar      1 <0>        -0.0681
     33 C26         5.6576   -5.3006   10.2080 C.3       1 <0>        -0.0832
     34 C27         6.8376   -5.9077   10.9962 C.3       1 <0>        -0.1216
     35 C28         6.4105   -7.3830   11.1482 C.3       1 <0>        -0.0880
     36 C29        -2.0819   -6.0692   12.9011 C.2       1 <0>         0.5894
     37 O2         -1.5241   -6.0370   13.9816 O.2       1 <0>        -0.5545
     38 N7         -3.4224   -5.9485   12.8310 N.am      1 <0>        -0.8423
     39 H1         -6.4147   -8.2638    0.1849 H         1 <0>         0.1241
     40 H2         -5.8741   -8.5584   -1.4852 H         1 <0>         0.1240
     41 H3         -5.2559   -9.5706   -0.1579 H         1 <0>         0.1228
     42 H4         -2.9986   -9.0349   -0.7951 H         1 <0>         0.1372
     43 H5         -3.6305   -8.0398   -2.1288 H         1 <0>         0.1355
     44 H6         -1.3227   -7.3584   -1.5059 H         1 <0>         0.1238
     45 H7         -2.4907   -6.0513   -1.1941 H         1 <0>         0.0608
     46 H8         -2.5923   -6.6677    2.4215 H         1 <0>         0.1284
     47 H9         -3.2368   -5.6454    1.1141 H         1 <0>         0.0603
     48 H10        -4.8982   -7.3502    1.7928 H         1 <0>         0.1354
     49 H11        -3.7229   -8.6409    1.4454 H         1 <0>         0.1370
     50 H12         0.1561   -6.3684    0.0113 H         1 <0>         0.0962
     51 H13        -0.9441   -5.1011    0.6044 H         1 <0>         0.0554
     52 H14        -1.3652   -4.8329    2.9799 H         1 <0>         0.1216
     53 H15        -0.4981   -5.1406    5.2626 H         1 <0>         0.1394
     54 H16         2.1593   -8.1718    3.8341 H         1 <0>         0.1294
     55 H17         1.2784   -7.8630    1.5569 H         1 <0>         0.1287
     56 H18         2.3096   -7.0992    6.1254 H         1 <0>         0.4290
     57 H19        -2.6298   -6.0895    7.6910 H         1 <0>         0.1927
     58 H20         0.5343   -6.5453   12.7043 H         1 <0>         0.1911
     59 H21         1.9072   -8.8371   11.6349 H         1 <0>         0.1332
     60 H22         4.3146   -9.2572   11.9007 H         1 <0>         0.1347
     61 H23         2.7731   -4.9984    9.9662 H         1 <0>         0.1232
     62 H24         5.8589   -5.3378    9.1374 H         1 <0>         0.0837
     63 H25         5.4801   -4.2729   10.5248 H         1 <0>         0.0789
     64 H26         7.7643   -5.8292   10.4279 H         1 <0>         0.0818
     65 H27         6.9383   -5.4310   11.9713 H         1 <0>         0.0768
     66 H28         6.7472   -7.7773   12.1070 H         1 <0>         0.0825
     67 H29         6.8140   -7.9797   10.3302 H         1 <0>         0.0864
     68 H30        -3.8743   -6.0473   11.9783 H         1 <0>         0.4120
     69 H31        -3.9353   -5.7629   13.6331 H         1 <0>         0.4033
     70 H32        -4.7518   -6.6988   -0.5008 H         1 <0>         0.4222
@<TRIPOS>BOND
     1    1    2 1
     2    1   39 1
     3    1   40 1
     4    1   41 1
     5    2    7 1
     6    2    3 1
     7    2   70 1
     8    3    4 1
     9    3   42 1
    10    3   43 1
    11    4    5 1
    12    4   44 1
    13    4   45 1
    14    5    6 1
    15    5    8 1
    16    6    7 1
    17    6   46 1
    18    6   47 1
    19    7   48 1
    20    7   49 1
    21    8    9 1
    22    8   50 1
    23    8   51 1
    24    9   14 ar
    25    9   10 ar
    26   10   11 ar
    27   10   52 1
    28   11   12 ar
    29   11   53 1
    30   12   13 ar
    31   12   15 1
    32   13   14 ar
    33   13   54 1
    34   14   55 1
    35   15   16 1
    36   15   56 1
    37   16   26 ar
    38   16   17 ar
    39   17   18 ar
    40   18   19 ar
    41   18   57 1
    42   19   25 ar
    43   19   20 1
    44   20   21 2
    45   20   22 1
    46   22   23 2
    47   22   36 1
    48   23   24 1
    49   23   58 1
    50   24   25 1
    51   24   27 1
    52   25   26 ar
    53   27   32 ar
    54   27   28 ar
    55   28   29 ar
    56   28   59 1
    57   29   30 ar
    58   29   60 1
    59   30   35 1
    60   30   31 ar
    61   31   32 ar
    62   31   33 1
    63   32   61 1
    64   33   34 1
    65   33   62 1
    66   33   63 1
    67   34   35 1
    68   34   64 1
    69   34   65 1
    70   35   66 1
    71   35   67 1
    72   36   37 2
    73   36   38 am
    74   38   68 1
    75   38   69 1
@<TRIPOS>MOLECULE
CHEMBL256893__1
   70    75     0     0     0
SMALL
USER_CHARGES

@<TRIPOS>ATOM
      1 C1         -5.4745   -8.4923   -0.7809 C.3       1 <0>         0.0195
      2 N1         -4.3259   -7.6125   -0.5267 N.3       1 <0>        -0.5431
      3 C2         -3.2401   -7.8746   -1.4819 C.3       1 <0>         0.0243
      4 C3         -2.0895   -6.8999   -1.2217 C.3       1 <0>        -0.0025
      5 N2         -1.6055   -7.0697    0.1547 N.4       1 <0>        -0.3855
      6 C4         -2.6942   -6.7807    1.0975 C.3       1 <0>        -0.0067
      7 C5         -3.8498   -7.7544    0.8566 C.3       1 <0>         0.0261
      8 C6         -0.4891   -6.1465    0.3983 C.3       1 <0>         0.0489
      9 C7          0.0870   -6.4049    1.7666 C.ar      1 <0>        -0.1840
     10 C8         -0.4146   -5.7309    2.8650 C.ar      1 <0>        -0.0724
     11 C9          0.1108   -5.9657    4.1204 C.ar      1 <0>        -0.1119
     12 C10         1.1442   -6.8801    4.2791 C.ar      1 <0>         0.2053
     13 C11         1.6458   -7.5554    3.1738 C.ar      1 <0>        -0.1456
     14 C12         1.1123   -7.3198    1.9219 C.ar      1 <0>        -0.0665
     15 N3          1.6788   -7.1198    5.5486 N.pl3     1 <0>        -0.6300
     16 C13         0.8680   -7.0463    6.6645 C.ar      1 <0>         0.6063
     17 N4         -0.4360   -6.8555    6.4954 N.ar      1 <0>        -0.5747
     18 C14        -1.2532   -6.7786    7.5310 C.ar      1 <0>         0.2819
     19 C15        -0.7151   -6.9026    8.8131 C.ar      1 <0>        -0.3279
     20 C16        -1.5512   -6.8299   10.0200 C.2       1 <0>         0.4529
     21 O1         -2.7557   -6.6574    9.9503 O.2       1 <0>        -0.4745
     22 C17        -0.8686   -6.9754   11.3180 C.2       1 <0>        -0.3190
     23 C18         0.4955   -7.1688   11.3349 C.2       1 <0>         0.2518
     24 N5          1.2262   -7.2296   10.2079 N.pl3     1 <0>        -0.4220
     25 C19         0.6723   -7.1042    8.9580 C.ar      1 <0>         0.4685
     26 N6          1.4193   -7.1741    7.8616 N.ar      1 <0>        -0.5773
     27 C20         2.6079   -7.4289   10.3132 C.ar      1 <0>         0.0869
     28 C21         3.1040   -8.6445   10.7665 C.ar      1 <0>        -0.0988
     29 C22         4.4666   -8.8356   10.8678 C.ar      1 <0>        -0.0938
     30 C23         5.3429   -7.8202   10.5199 C.ar      1 <0>        -0.0713
     31 C24         4.8521   -6.6088   10.0684 C.ar      1 <0>        -0.0854
     32 C25         3.4863   -6.4148    9.9597 C.ar      1 <0>        -0.0686
     33 C26         6.0021   -5.6749    9.7568 C.3       1 <0>        -0.0831
     34 C27         7.2239   -6.2848   10.4761 C.3       1 <0>        -0.1218
     35 C28         6.8563   -7.7823   10.5421 C.3       1 <0>        -0.0884
     36 C29        -1.6310   -6.9145   12.5750 C.2       1 <0>         0.5888
     37 O2         -1.0470   -6.9298   13.6419 O.2       1 <0>        -0.5529
     38 N7         -2.9764   -6.8419   12.5442 N.am      1 <0>        -0.8416
     39 H1         -6.2878   -8.2330   -0.1031 H         1 <0>         0.0842
     40 H2         -5.8067   -8.3674   -1.8115 H         1 <0>         0.0835
     41 H3         -5.1813   -9.5292   -0.6168 H         1 <0>         0.0389
     42 H4         -2.8853   -8.8977   -1.3574 H         1 <0>         0.0595
     43 H5         -3.6092   -7.7385   -2.4984 H         1 <0>         0.1234
     44 H6         -1.2772   -7.1020   -1.9199 H         1 <0>         0.1357
     45 H7         -2.4412   -5.8775   -1.3596 H         1 <0>         0.1381
     46 H8         -2.3302   -6.8943    2.1186 H         1 <0>         0.1371
     47 H9         -3.0428   -5.7588    0.9477 H         1 <0>         0.1370
     48 H10        -4.6638   -7.5305    1.5461 H         1 <0>         0.1229
     49 H11        -3.5050   -8.7755    1.0196 H         1 <0>         0.0591
     50 H12         0.2822   -6.3020   -0.3560 H         1 <0>         0.1363
     51 H13        -0.8488   -5.1190    0.3437 H         1 <0>         0.1360
     52 H14        -1.2180   -5.0198    2.7408 H         1 <0>         0.1350
     53 H15        -0.2812   -5.4387    4.9777 H         1 <0>         0.1489
     54 H16         2.4495   -8.2668    3.2938 H         1 <0>         0.1381
     55 H17         1.4990   -7.8475    1.0627 H         1 <0>         0.1351
     56 H18         2.6189   -7.3378    5.6457 H         1 <0>         0.4322
     57 H19        -2.3124   -6.6231    7.3888 H         1 <0>         0.1957
     58 H20         0.9952   -7.2750   12.2865 H         1 <0>         0.1924
     59 H21         2.4245   -9.4386   11.0388 H         1 <0>         0.1336
     60 H22         4.8520   -9.7809   11.2203 H         1 <0>         0.1353
     61 H23         3.1030   -5.4703    9.6027 H         1 <0>         0.1232
     62 H24         6.1769   -5.6358    8.6816 H         1 <0>         0.0834
     63 H25         5.7946   -4.6772   10.1437 H         1 <0>         0.0793
     64 H26         8.1321   -6.1342    9.8925 H         1 <0>         0.0821
     65 H27         7.3320   -5.8679   11.4774 H         1 <0>         0.0773
     66 H28         7.2321   -8.2237   11.4651 H         1 <0>         0.0831
     67 H29         7.2605   -8.3094    9.6779 H         1 <0>         0.0866
     68 H30        -3.4463   -6.9034   11.6978 H         1 <0>         0.4121
     69 H31        -3.4750   -6.7280   13.3685 H         1 <0>         0.4043
     70 H32        -1.2908   -8.0194    0.2856 H         1 <0>         0.4191
@<TRIPOS>BOND
     1    1    2 1
     2    1   39 1
     3    1   40 1
     4    1   41 1
     5    2    7 1
     6    2    3 1
     7    3    4 1
     8    3   42 1
     9    3   43 1
    10    4    5 1
    11    4   44 1
    12    4   45 1
    13    5    6 1
    14    5    8 1
    15    5   70 1
    16    6    7 1
    17    6   46 1
    18    6   47 1
    19    7   48 1
    20    7   49 1
    21    8    9 1
    22    8   50 1
    23    8   51 1
    24    9   14 ar
    25    9   10 ar
    26   10   11 ar
    27   10   52 1
    28   11   12 ar
    29   11   53 1
    30   12   13 ar
    31   12   15 1
    32   13   14 ar
    33   13   54 1
    34   14   55 1
    35   15   16 1
    36   15   56 1
    37   16   26 ar
    38   16   17 ar
    39   17   18 ar
    40   18   19 ar
    41   18   57 1
    42   19   25 ar
    43   19   20 1
    44   20   21 2
    45   20   22 1
    46   22   23 2
    47   22   36 1
    48   23   24 1
    49   23   58 1
    50   24   25 1
    51   24   27 1
    52   25   26 ar
    53   27   32 ar
    54   27   28 ar
    55   28   29 ar
    56   28   59 1
    57   29   30 ar
    58   29   60 1
    59   30   35 1
    60   30   31 ar
    61   31   32 ar
    62   31   33 1
    63   32   61 1
    64   33   34 1
    65   33   62 1
    66   33   63 1
    67   34   35 1
    68   34   64 1
    69   34   65 1
    70   35   66 1
    71   35   67 1
    72   36   37 2
    73   36   38 am
    74   38   68 1
    75   38   69 1
@<TRIPOS>MOLECULE
CHEMBL404367
   48    51     0     0     0
SMALL
USER_CHARGES

@<TRIPOS>ATOM
      1 C1         -1.1905    1.0261   -0.4149 C.3       1 <0>        -0.1156
      2 C2         -1.7161   -0.2502    0.1901 C.ar      1 <0>        -0.0661
      3 C3         -2.9560   -0.7337   -0.1863 C.ar      1 <0>        -0.1348
      4 C4         -3.4416   -1.9045    0.3660 C.ar      1 <0>        -0.0949
      5 C5         -2.6891   -2.5951    1.2961 C.ar      1 <0>        -0.1252
      6 C6         -1.4440   -2.1123    1.6761 C.ar      1 <0>         0.1636
      7 C7         -0.9568   -0.9387    1.1155 C.ar      1 <0>        -0.1471
      8 N1         -0.6795   -2.8093    2.6184 N.am      1 <0>        -0.6806
      9 C8         -0.7436   -4.1543    2.6763 C.2       1 <0>         0.7037
     10 O1         -1.3916   -4.7682    1.8506 O.2       1 <0>        -0.5490
     11 N2         -0.0895   -4.8189    3.6494 N.am      1 <0>        -0.6818
     12 C9         -0.0661   -6.2169    3.6472 C.ar      1 <0>         0.1720
     13 C10        -0.0547   -6.9086    2.4417 C.ar      1 <0>        -0.1130
     14 C11        -0.0320   -8.2868    2.4365 C.ar      1 <0>        -0.0755
     15 C12        -0.0201   -8.9874    3.6428 C.ar      1 <0>        -0.0649
     16 C13        -0.0312   -8.2906    4.8513 C.ar      1 <0>        -0.0961
     17 C14        -0.0486   -6.9123    4.8505 C.ar      1 <0>        -0.1424
     18 C15         0.0037  -10.4686    3.6404 C.ar      1 <0>        -0.0061
     19 C16        -0.8951  -11.1930    2.8687 C.ar      1 <0>         0.0472
     20 N3         -0.8783  -12.5143    2.8629 N.ar      1 <0>        -0.4337
     21 C17        -0.0240  -13.2180    3.5753 C.ar      1 <0>         0.0935
     22 C18         0.9175  -12.5856    4.3818 C.ar      1 <0>         0.0990
     23 C19         0.9430  -11.1766    4.4170 C.ar      1 <0>        -0.1559
     24 C20         2.0204  -10.8052    5.3261 C.2       1 <0>         0.3625
     25 N4          2.5657  -11.9097    5.7668 N.2       1 <0>        -0.3095
     26 N5          1.9121  -13.0184    5.2176 N.pl3     1 <0>        -0.3947
     27 C21         2.2489  -14.4194    5.4822 C.3       1 <0>         0.1129
     28 N6          2.4022   -9.5037    5.6653 N.pl3     1 <0>        -0.8350
     29 H1         -0.6280    0.7947   -1.3194 H         1 <0>         0.0723
     30 H2         -2.0256    1.6809   -0.6638 H         1 <0>         0.0690
     31 H3         -0.5379    1.5256    0.3011 H         1 <0>         0.0665
     32 H4         -3.5463   -0.1954   -0.9131 H         1 <0>         0.1239
     33 H5         -4.4103   -2.2793    0.0702 H         1 <0>         0.1269
     34 H6         -3.0691   -3.5094    1.7275 H         1 <0>         0.1356
     35 H7          0.0131   -0.5628    1.4060 H         1 <0>         0.1247
     36 H8         -0.1034   -2.3245    3.2299 H         1 <0>         0.4088
     37 H9          0.3650   -4.3273    4.3513 H         1 <0>         0.4100
     38 H10        -0.0639   -6.3657    1.5081 H         1 <0>         0.1419
     39 H11        -0.0239   -8.8237    1.4995 H         1 <0>         0.1331
     40 H12        -0.0224   -8.8306    5.7866 H         1 <0>         0.1328
     41 H13        -0.0527   -6.3723    5.7858 H         1 <0>         0.1325
     42 H14        -1.6197  -10.6681    2.2639 H         1 <0>         0.1622
     43 H15        -0.0542  -14.2968    3.5338 H         1 <0>         0.1611
     44 H16         2.9965  -14.7553    4.7636 H         1 <0>         0.0710
     45 H17         2.6481  -14.5126    6.4921 H         1 <0>         0.0891
     46 H18         1.3527  -15.0326    5.3876 H         1 <0>         0.0870
     47 H19         1.9333   -8.7455    5.2831 H         1 <0>         0.4125
     48 H20         3.1360   -9.3590    6.2830 H         1 <0>         0.4064
@<TRIPOS>BOND
     1    1    2 1
     2    1   29 1
     3    1   30 1
     4    1   31 1
     5    2    7 ar
     6    2    3 ar
     7    3    4 ar
     8    3   32 1
     9    4    5 ar
    10    4   33 1
    11    5    6 ar
    12    5   34 1
    13    6    7 ar
    14    6    8 1
    15    7   35 1
    16    8    9 am
    17    8   36 1
    18    9   10 2
    19    9   11 am
    20   11   12 1
    21   11   37 1
    22   12   17 ar
    23   12   13 ar
    24   13   14 ar
    25   13   38 1
    26   14   15 ar
    27   14   39 1
    28   15   16 ar
    29   15   18 1
    30   16   17 ar
    31   16   40 1
    32   17   41 1
    33   18   23 ar
    34   18   19 ar
    35   19   20 ar
    36   19   42 1
    37   20   21 ar
    38   21   22 ar
    39   21   43 1
    40   22   26 1
    41   22   23 ar
    42   23   24 1
    43   24   25 2
    44   24   28 1
    45   25   26 1
    46   26   27 1
    47   27   44 1
    48   27   45 1
    49   27   46 1
    50   28   47 1
    51   28   48 1
@<TRIPOS>MOLECULE
CHEMBL492809
   72    77     0     0     0
SMALL
USER_CHARGES

@<TRIPOS>ATOM
      1 C1         -0.9390    1.3291    2.0745 C.3       1 <0>        -0.0473
      2 N1         -0.8447   -0.1289    1.9222 N.4       1 <0>        -0.3852
      3 C2          0.2103   -0.4510    0.9538 C.3       1 <0>        -0.0071
      4 C3          0.3680   -1.9696    0.8518 C.3       1 <0>        -0.1410
      5 C4         -0.9561   -2.5849    0.3900 C.3       1 <0>        -0.0508
      6 C5         -2.0638   -2.1808    1.3673 C.3       1 <0>        -0.1413
      7 C6         -2.1314   -0.6543    1.4502 C.3       1 <0>        -0.0071
      8 C7         -0.8315   -4.0865    0.3625 C.ar      1 <0>        -0.1132
      9 C8         -0.5356   -4.7756    1.5243 C.ar      1 <0>        -0.0936
     10 C9         -0.4211   -6.1517    1.5027 C.ar      1 <0>        -0.1063
     11 C10        -0.6036   -6.8436    0.3122 C.ar      1 <0>         0.1731
     12 C11        -0.9008   -6.1484   -0.8530 C.ar      1 <0>        -0.1392
     13 C12        -1.0190   -4.7727   -0.8234 C.ar      1 <0>        -0.0851
     14 N2         -0.4881   -8.2367    0.2866 N.pl3     1 <0>        -0.6282
     15 C13        -0.8839   -8.9827    1.3797 C.ar      1 <0>         0.6099
     16 N3         -1.4704   -8.3626    2.3979 N.ar      1 <0>        -0.5706
     17 C14        -1.8675   -9.0320    3.4658 C.ar      1 <0>         0.2834
     18 C15        -1.6568  -10.4115    3.5020 C.ar      1 <0>        -0.3313
     19 C16        -2.0673  -11.2331    4.6499 C.2       1 <0>         0.4546
     20 O1         -2.6118  -10.7406    5.6227 O.2       1 <0>        -0.4810
     21 C17        -1.7919  -12.6788    4.5719 C.2       1 <0>        -0.3113
     22 C18        -1.1740  -13.1791    3.4466 C.2       1 <0>         0.2582
     23 N4         -0.8134  -12.3941    2.4164 N.pl3     1 <0>        -0.4194
     24 C19        -1.0318  -11.0389    2.4056 C.ar      1 <0>         0.4674
     25 N5         -0.6691  -10.2893    1.3704 N.ar      1 <0>        -0.5809
     26 C20        -0.1898  -12.9828    1.3097 C.ar      1 <0>         0.0883
     27 C21        -0.8460  -13.9673    0.5822 C.ar      1 <0>        -0.1030
     28 C22        -0.2270  -14.5436   -0.5078 C.ar      1 <0>        -0.0925
     29 C23         1.0468  -14.1451   -0.8802 C.ar      1 <0>        -0.0738
     30 C24         1.7028  -13.1652   -0.1579 C.ar      1 <0>        -0.0858
     31 C25         1.0833  -12.5804    0.9326 C.ar      1 <0>        -0.0652
     32 C26         3.0677  -12.9120   -0.7616 C.3       1 <0>        -0.0822
     33 C27         3.3486  -14.1392   -1.6543 C.3       1 <0>        -0.1217
     34 C28         1.9268  -14.6165   -2.0185 C.3       1 <0>        -0.0880
     35 C29        -2.1699  -13.5729    5.6777 C.2       1 <0>         0.5966
     36 O2         -1.8455  -14.7449    5.6503 O.2       1 <0>        -0.5313
     37 N6         -2.8756  -13.0932    6.7210 N.am      1 <0>        -0.5865
     38 O3         -3.1403  -13.9225    7.8378 O.3       1 <0>        -0.1461
     39 C30        -3.8974  -13.2850    8.8686 C.3       1 <0>         0.0006
     40 H1         -1.7177    1.5692    2.7985 H         1 <0>         0.1237
     41 H2          0.0160    1.7204    2.4251 H         1 <0>         0.1236
     42 H3         -1.1854    1.7797    1.1131 H         1 <0>         0.1214
     43 H4         -0.0579   -0.0476   -0.0226 H         1 <0>         0.1288
     44 H5          1.1513   -0.0096    1.2822 H         1 <0>         0.1312
     45 H6          1.1505   -2.2066    0.1310 H         1 <0>         0.1139
     46 H7          0.6366   -2.3740    1.8277 H         1 <0>         0.0901
     47 H8         -1.1993   -2.2198   -0.6078 H         1 <0>         0.0951
     48 H9         -3.0194   -2.5688    1.0149 H         1 <0>         0.1143
     49 H10        -1.8457   -2.5896    2.3539 H         1 <0>         0.0906
     50 H11        -2.9191   -0.3632    2.1450 H         1 <0>         0.1315
     51 H12        -2.3497   -0.2466    0.4632 H         1 <0>         0.1288
     52 H13        -0.3934   -4.2370    2.4496 H         1 <0>         0.1216
     53 H14        -0.1896   -6.6893    2.4103 H         1 <0>         0.1388
     54 H15        -1.0430   -6.6833   -1.7804 H         1 <0>         0.1306
     55 H16        -1.2541   -4.2319   -1.7282 H         1 <0>         0.1285
     56 H17        -0.1299   -8.6794   -0.4987 H         1 <0>         0.4293
     57 H18        -2.3436   -8.5237    4.2913 H         1 <0>         0.1942
     58 H19        -0.9721  -14.2386    3.3904 H         1 <0>         0.1944
     59 H20        -1.8389  -14.2809    0.8691 H         1 <0>         0.1352
     60 H21        -0.7375  -15.3091   -1.0733 H         1 <0>         0.1355
     61 H22         1.5938  -11.8119    1.4940 H         1 <0>         0.1235
     62 H23         3.0527  -12.0027   -1.3625 H         1 <0>         0.0831
     63 H24         3.8201  -12.8351    0.0234 H         1 <0>         0.0783
     64 H25         3.9009  -13.8497   -2.5483 H         1 <0>         0.0815
     65 H26         3.8849  -14.9082   -1.0983 H         1 <0>         0.0768
     66 H27         1.9000  -15.7037   -2.0919 H         1 <0>         0.0826
     67 H28         1.6051  -14.1652   -2.9571 H         1 <0>         0.0863
     68 H29        -3.2022  -12.1800    6.7067 H         1 <0>         0.4186
     69 H30        -3.3517  -12.4158    9.2356 H         1 <0>         0.0568
     70 H31        -4.8603  -12.9672    8.4686 H         1 <0>         0.0563
     71 H32        -4.0578  -13.9858    9.6879 H         1 <0>         0.1144
     72 H33        -0.6190   -0.5452    2.8132 H         1 <0>         0.4244
@<TRIPOS>BOND
     1    1    2 1
     2    1   40 1
     3    1   41 1
     4    1   42 1
     5    2    7 1
     6    2    3 1
     7    2   72 1
     8    3    4 1
     9    3   43 1
    10    3   44 1
    11    4    5 1
    12    4   45 1
    13    4   46 1
    14    5    6 1
    15    5    8 1
    16    5   47 1
    17    6    7 1
    18    6   48 1
    19    6   49 1
    20    7   50 1
    21    7   51 1
    22    8   13 ar
    23    8    9 ar
    24    9   10 ar
    25    9   52 1
    26   10   11 ar
    27   10   53 1
    28   11   12 ar
    29   11   14 1
    30   12   13 ar
    31   12   54 1
    32   13   55 1
    33   14   15 1
    34   14   56 1
    35   15   25 ar
    36   15   16 ar
    37   16   17 ar
    38   17   18 ar
    39   17   57 1
    40   18   24 ar
    41   18   19 1
    42   19   20 2
    43   19   21 1
    44   21   22 2
    45   21   35 1
    46   22   23 1
    47   22   58 1
    48   23   24 1
    49   23   26 1
    50   24   25 ar
    51   26   31 ar
    52   26   27 ar
    53   27   28 ar
    54   27   59 1
    55   28   29 ar
    56   28   60 1
    57   29   34 1
    58   29   30 ar
    59   30   31 ar
    60   30   32 1
    61   31   61 1
    62   32   33 1
    63   32   62 1
    64   32   63 1
    65   33   34 1
    66   33   64 1
    67   33   65 1
    68   34   66 1
    69   34   67 1
    70   35   36 2
    71   35   37 am
    72   37   38 1
    73   37   68 1
    74   38   39 1
    75   39   69 1
    76   39   70 1
    77   39   71 1
@<TRIPOS>MOLECULE
CHEMBL255213
   43    46     0     0     0
SMALL
USER_CHARGES

@<TRIPOS>ATOM
      1 C1         -0.0187    1.5258    0.0104 C.3       1 <0>        -0.1479
      2 C2          0.0021   -0.0041    0.0020 C.3       1 <0>        -0.0898
      3 C3          0.7074   -0.4901   -1.2379 C.ar      1 <0>        -0.0603
      4 C4         -0.0145   -0.7176   -2.3964 C.ar      1 <0>        -0.1137
      5 C5          0.6246   -1.1620   -3.5350 C.ar      1 <0>        -0.0711
      6 C6          2.0039   -1.3824   -3.5168 C.ar      1 <0>        -0.0948
      7 C7          2.7262   -1.1506   -2.3438 C.ar      1 <0>        -0.0872
      8 C8          2.0749   -0.7012   -1.2142 C.ar      1 <0>        -0.1191
      9 C9          2.6953   -1.8587   -4.7321 C.2       1 <0>         0.1073
     10 C10         3.3296   -3.1840   -4.7683 C.ar      1 <0>        -0.1118
     11 C11         3.2902   -4.0217   -3.6486 C.ar      1 <0>        -0.0359
     12 C12         3.8898   -5.2601   -3.7013 C.ar      1 <0>        -0.0669
     13 C13         4.5324   -5.6793   -4.8595 C.ar      1 <0>        -0.0464
     14 C14         4.5795   -4.8655   -5.9699 C.ar      1 <0>        -0.1498
     15 C15         3.9797   -3.6093   -5.9398 C.ar      1 <0>         0.1999
     16 N1          4.0257   -2.7922   -7.0517 N.am      1 <0>        -0.6254
     17 H1          4.4796   -3.1059   -7.8495 H         1 <0>         0.4239
     18 C16         3.4582   -1.5744   -7.0585 C.2       1 <0>         0.5575
     19 O1          3.5232   -0.8869   -8.0622 O.2       1 <0>        -0.5103
     20 C17         2.7583   -1.0643   -5.8782 C.2       1 <0>        -0.1356
     21 C18         2.1348    0.2691   -5.8978 C.2       1 <0>         0.1370
     22 C19         2.7862    1.4612   -6.0273 C.2       1 <0>        -0.2480
     23 C20         1.8280    2.4826   -5.9983 C.2       1 <0>         0.1061
     24 N2          0.6510    1.9375   -5.8579 N.2       1 <0>        -0.3148
     25 O2          0.8176    0.5327   -5.7970 O.3       1 <0>        -0.0685
     26 C21         2.1088    3.9590   -6.1097 C.3       1 <0>        -0.0868
     27 Cl1         3.8429   -6.3024   -2.3138 Cl        1 <0>        -0.0539
     28 H2          1.0039    1.9031    0.0027 H         1 <0>         0.0558
     29 H3         -0.5459    1.8868   -0.8726 H         1 <0>         0.0569
     30 H4         -0.5289    1.8773    0.9072 H         1 <0>         0.0607
     31 H5          0.5293   -0.3651    0.8851 H         1 <0>         0.0749
     32 H6         -1.0205   -0.3814    0.0098 H         1 <0>         0.0752
     33 H7         -1.0808   -0.5472   -2.4089 H         1 <0>         0.1291
     34 H8          0.0600   -1.3395   -4.4383 H         1 <0>         0.1297
     35 H9          3.7928   -1.3192   -2.3227 H         1 <0>         0.1277
     36 H10         2.6327   -0.5177   -0.3078 H         1 <0>         0.1290
     37 H11         2.7920   -3.6984   -2.7466 H         1 <0>         0.1500
     38 H12         5.0000   -6.6524   -4.8894 H         1 <0>         0.1482
     39 H13         5.0820   -5.2022   -6.8647 H         1 <0>         0.1494
     40 H14         3.8528    1.5938   -6.1330 H         1 <0>         0.1586
     41 H15         2.0825    4.2558   -7.1582 H         1 <0>         0.0910
     42 H16         1.3530    4.5154   -5.5556 H         1 <0>         0.0826
     43 H17         3.0942    4.1737   -5.6960 H         1 <0>         0.0880
@<TRIPOS>BOND
     1    1    2 1
     2    1   28 1
     3    1   29 1
     4    1   30 1
     5    2    3 1
     6    2   31 1
     7    2   32 1
     8    3    8 ar
     9    3    4 ar
    10    4    5 ar
    11    4   33 1
    12    5    6 ar
    13    5   34 1
    14    6    7 ar
    15    6    9 1
    16    7    8 ar
    17    7   35 1
    18    8   36 1
    19    9   20 2
    20    9   10 1
    21   10   15 ar
    22   10   11 ar
    23   11   12 ar
    24   11   37 1
    25   12   13 ar
    26   12   27 1
    27   13   14 ar
    28   13   38 1
    29   14   15 ar
    30   14   39 1
    31   15   16 1
    32   16   17 1
    33   16   18 am
    34   18   19 2
    35   18   20 1
    36   20   21 1
    37   21   25 1
    38   21   22 2
    39   22   23 1
    40   22   40 1
    41   23   24 2
    42   23   26 1
    43   24   25 1
    44   26   41 1
    45   26   42 1
    46   26   43 1
@<TRIPOS>MOLECULE
CHEMBL252834
   59    62     0     0     0
SMALL
USER_CHARGES

@<TRIPOS>ATOM
      1 C1         -1.2596   -0.1152   -2.3305 C.3       1 <0>        -0.1483
      2 C2         -0.6151   -0.7892   -1.1176 C.3       1 <0>        -0.0896
      3 C3         -0.5954   -2.3051   -1.3274 C.3       1 <0>        -0.1285
      4 C4          0.0817   -2.9739   -0.1269 C.3       1 <0>         0.1485
      5 N1         -0.6005   -2.5434    1.1011 N.pl3     1 <0>        -0.6610
      6 C5         -0.7547   -1.1048    1.3564 C.3       1 <0>         0.1437
      7 C6         -1.4224   -0.4569    0.1393 C.3       1 <0>        -0.1284
      8 C7         -1.0915   -3.4806    2.0051 C.ar      1 <0>         0.4136
      9 C8         -0.2436   -4.0145    2.9768 C.ar      1 <0>         0.0583
     10 C9         -0.7464   -4.9496    3.8738 C.ar      1 <0>        -0.0286
     11 C10        -2.0783   -5.3183    3.7683 C.ar      1 <0>        -0.2156
     12 C11        -2.8656   -4.7470    2.7771 C.ar      1 <0>         0.3899
     13 N2         -2.3600   -3.8536    1.9391 N.ar      1 <0>        -0.5248
     14 N3         -4.2041   -5.1133    2.6661 N.pl3     1 <0>        -0.6287
     15 C12        -5.0058   -4.7056    1.5020 C.3       1 <0>         0.1080
     16 C13        -5.7049   -5.9457    0.9353 C.3       1 <0>        -0.0227
     17 N4         -6.4732   -6.6028    2.0002 N.4       1 <0>        -0.3845
     18 C14        -5.5629   -7.1022    3.0384 C.3       1 <0>        -0.0225
     19 C15        -4.8552   -5.9241    3.7065 C.3       1 <0>         0.1020
     20 C16        -7.2302   -7.7268    1.4332 C.3       1 <0>        -0.0470
     21 N5          1.0985   -3.6128    3.0469 N.am      1 <0>        -0.6458
     22 C17         2.0471   -4.4943    3.4207 C.2       1 <0>         0.6090
     23 O1          1.7311   -5.6158    3.7716 O.2       1 <0>        -0.4958
     24 C18         3.4633   -4.1010    3.4044 C.2       1 <0>        -0.0489
     25 C19         4.5167   -4.8988    3.7528 C.2       1 <0>        -0.1075
     26 C20         5.6785   -4.1355    3.5932 C.2       1 <0>        -0.1296
     27 C21         5.2811   -2.8932    3.1503 C.2       1 <0>         0.0861
     28 O2          3.9401   -2.8961    3.0381 O.3       1 <0>        -0.1451
     29 C22         6.1460   -1.7909    2.8547 C.1       1 <0>         0.2756
     30 N6          6.8322   -0.9164    2.6202 N.1       1 <0>        -0.3482
     31 H1         -1.2726    0.9646   -2.1818 H         1 <0>         0.0561
     32 H2         -0.6848   -0.3518   -3.2258 H         1 <0>         0.0558
     33 H3         -2.2807   -0.4781   -2.4479 H         1 <0>         0.0520
     34 H4          0.4058   -0.4258   -1.0001 H         1 <0>         0.0709
     35 H5         -1.6173   -2.6728   -1.4201 H         1 <0>         0.0639
     36 H6         -0.0400   -2.5395   -2.2355 H         1 <0>         0.0705
     37 H7          0.0104   -4.0572   -0.2240 H         1 <0>         0.0660
     38 H8          1.1296   -2.6768   -0.0861 H         1 <0>         0.0590
     39 H9         -1.3779   -0.9548    2.2380 H         1 <0>         0.0685
     40 H10         0.2250   -0.6552    1.5181 H         1 <0>         0.0597
     41 H11        -1.4557    0.6241    0.2751 H         1 <0>         0.0704
     42 H12        -2.4365   -0.8420    0.0327 H         1 <0>         0.0651
     43 H13        -0.1133   -5.3797    4.6357 H         1 <0>         0.1584
     44 H14        -2.4994   -6.0427    4.4497 H         1 <0>         0.1382
     45 H15        -5.7519   -3.9729    1.8095 H         1 <0>         0.0852
     46 H16        -4.3548   -4.2729    0.7423 H         1 <0>         0.1343
     47 H17        -6.3785   -5.6479    0.1318 H         1 <0>         0.1406
     48 H18        -4.9582   -6.6377    0.5459 H         1 <0>         0.1310
     49 H19        -6.1319   -7.6566    3.7847 H         1 <0>         0.1435
     50 H20        -4.8205   -7.7593    2.5854 H         1 <0>         0.1332
     51 H21        -4.1047   -6.2967    4.4037 H         1 <0>         0.1293
     52 H22        -5.5859   -5.3167    4.2405 H         1 <0>         0.0918
     53 H23        -6.5391   -8.4426    0.9882 H         1 <0>         0.1215
     54 H24        -7.8011   -8.2154    2.2227 H         1 <0>         0.1253
     55 H25        -7.9122   -7.3562    0.6678 H         1 <0>         0.1250
     56 H26         1.3439   -2.7006    2.8265 H         1 <0>         0.4205
     57 H27         4.4626   -5.9239    4.0883 H         1 <0>         0.1779
     58 H28         6.6918   -4.4581    3.7817 H         1 <0>         0.1781
     59 H29        -7.1152   -5.9398    2.4081 H         1 <0>         0.4248
@<TRIPOS>BOND
     1    1    2 1
     2    1   31 1
     3    1   32 1
     4    1   33 1
     5    2    7 1
     6    2    3 1
     7    2   34 1
     8    3    4 1
     9    3   35 1
    10    3   36 1
    11    4    5 1
    12    4   37 1
    13    4   38 1
    14    5    6 1
    15    5    8 1
    16    6    7 1
    17    6   39 1
    18    6   40 1
    19    7   41 1
    20    7   42 1
    21    8   13 ar
    22    8    9 ar
    23    9   10 ar
    24    9   21 1
    25   10   11 ar
    26   10   43 1
    27   11   12 ar
    28   11   44 1
    29   12   13 ar
    30   12   14 1
    31   14   19 1
    32   14   15 1
    33   15   16 1
    34   15   45 1
    35   15   46 1
    36   16   17 1
    37   16   47 1
    38   16   48 1
    39   17   18 1
    40   17   20 1
    41   17   59 1
    42   18   19 1
    43   18   49 1
    44   18   50 1
    45   19   51 1
    46   19   52 1
    47   20   53 1
    48   20   54 1
    49   20   55 1
    50   21   22 am
    51   21   56 1
    52   22   23 2
    53   22   24 1
    54   24   28 1
    55   24   25 2
    56   25   26 1
    57   25   57 1
    58   26   27 2
    59   26   58 1
    60   27   28 1
    61   27   29 1
    62   29   30 3
@<TRIPOS>MOLECULE
CHEMBL252834__1
   59    62     0     0     0
SMALL
USER_CHARGES

@<TRIPOS>ATOM
      1 C1         -0.8683   -0.0326   -2.4400 C.3       1 <0>        -0.1516
      2 C2         -0.3108   -0.7261   -1.1954 C.3       1 <0>        -0.0922
      3 C3         -0.2773   -2.2386   -1.4264 C.3       1 <0>        -0.1332
      4 C4          0.3136   -2.9267   -0.1918 C.3       1 <0>         0.1270
      5 N1         -0.4527   -2.5139    0.9918 N.pl3     1 <0>        -0.6677
      6 C5         -0.6237   -1.0790    1.2576 C.3       1 <0>         0.1316
      7 C6         -1.2040   -0.4116    0.0068 C.3       1 <0>        -0.1345
      8 C7         -1.0065   -3.4638    1.8448 C.ar      1 <0>         0.3881
      9 C8         -0.2307   -4.0097    2.8688 C.ar      1 <0>         0.1140
     10 C9         -0.7957   -4.9576    3.7138 C.ar      1 <0>         0.0253
     11 C10        -2.1154   -5.3266    3.5061 C.ar      1 <0>        -0.1797
     12 C11        -2.8294   -4.7430    2.4676 C.ar      1 <0>         0.4428
     13 N2         -2.2658   -3.8376    1.6810 N.ar      1 <0>        -0.5038
     14 N3         -4.1552   -5.1096    2.2539 N.pl3     1 <0>        -0.5900
     15 C12        -4.9009   -4.6020    1.0922 C.3       1 <0>         0.1043
     16 C13        -5.5381   -5.7911    0.3654 C.3       1 <0>         0.0383
     17 N4         -6.3334   -6.5752    1.3197 N.3       1 <0>        -0.5418
     18 C14        -5.4868   -7.1481    2.3747 C.3       1 <0>         0.0334
     19 C15        -4.8456   -6.0195    3.1806 C.3       1 <0>         0.1151
     20 C16        -7.0984   -7.6234    0.6313 C.3       1 <0>         0.0220
     21 N5          1.1017   -3.6072    3.0424 N.am      1 <0>        -0.6472
     22 C17         1.6880   -3.7210    4.2506 C.2       1 <0>         0.6195
     23 O1          1.0338   -4.0756    5.2134 O.2       1 <0>        -0.4821
     24 C18         3.1177   -3.4166    4.4053 C.2       1 <0>        -0.0641
     25 C19         3.8290   -3.4975    5.5694 C.2       1 <0>        -0.0910
     26 C20         5.1443   -3.1240    5.2722 C.2       1 <0>        -0.1308
     27 C21         5.1801   -2.8285    3.9273 C.2       1 <0>         0.1006
     28 O2          3.9470   -3.0170    3.4225 O.3       1 <0>        -0.1476
     29 C22         6.3318   -2.4001    3.1921 C.1       1 <0>         0.2702
     30 N6          7.2455   -2.0602    2.6088 N.1       1 <0>        -0.3388
     31 H1         -0.8911    1.0447   -2.2762 H         1 <0>         0.0607
     32 H2         -0.2322   -0.2565   -3.2964 H         1 <0>         0.0605
     33 H3         -1.8789   -0.3921   -2.6342 H         1 <0>         0.0544
     34 H4          0.6996   -0.3662   -1.0011 H         1 <0>         0.0783
     35 H5         -1.2904   -2.6032   -1.5962 H         1 <0>         0.0643
     36 H6          0.3402   -2.4601   -2.2968 H         1 <0>         0.0854
     37 H7          0.2486   -4.0083   -0.3102 H         1 <0>         0.0793
     38 H8          1.3562   -2.6320   -0.0732 H         1 <0>         0.0800
     39 H9         -1.3070   -0.9415    2.0956 H         1 <0>         0.0783
     40 H10         0.3426   -0.6336    1.4944 H         1 <0>         0.0807
     41 H11        -1.2461    0.6673    0.1564 H         1 <0>         0.0854
     42 H12        -2.2084   -0.7934   -0.1765 H         1 <0>         0.0637
     43 H13        -0.2191   -5.3971    4.5143 H         1 <0>         0.1931
     44 H14        -2.5836   -6.0608    4.1450 H         1 <0>         0.1863
     45 H15        -5.6801   -3.9177    1.4278 H         1 <0>         0.1068
     46 H16        -4.2195   -4.0832    0.4180 H         1 <0>         0.0776
     47 H17        -6.1842   -5.4257   -0.4328 H         1 <0>         0.1040
     48 H18        -4.7553   -6.4200   -0.0589 H         1 <0>         0.0462
     49 H19        -6.0958   -7.7668    3.0338 H         1 <0>         0.1070
     50 H20        -4.7048   -7.7580    1.9225 H         1 <0>         0.0475
     51 H21        -4.1278   -6.4373    3.8864 H         1 <0>         0.1056
     52 H22        -5.6195   -5.4740    3.7207 H         1 <0>         0.1038
     53 H23        -6.4119   -8.2941    0.1143 H         1 <0>         0.0329
     54 H24        -7.6781   -8.1887    1.3610 H         1 <0>         0.0797
     55 H25        -7.7727   -7.1653   -0.0923 H         1 <0>         0.0781
     56 H26         1.6011   -3.2470    2.2929 H         1 <0>         0.4284
     57 H27         3.4479   -3.7930    6.5358 H         1 <0>         0.1817
     58 H28         5.9721   -3.0761    5.9642 H         1 <0>         0.1816
     59 H29        -2.7875   -3.4422    0.9652 H         1 <0>         0.4328
@<TRIPOS>BOND
     1    1    2 1
     2    1   31 1
     3    1   32 1
     4    1   33 1
     5    2    7 1
     6    2    3 1
     7    2   34 1
     8    3    4 1
     9    3   35 1
    10    3   36 1
    11    4    5 1
    12    4   37 1
    13    4   38 1
    14    5    6 1
    15    5    8 1
    16    6    7 1
    17    6   39 1
    18    6   40 1
    19    7   41 1
    20    7   42 1
    21    8   13 ar
    22    8    9 ar
    23    9   10 ar
    24    9   21 1
    25   10   11 ar
    26   10   43 1
    27   11   12 ar
    28   11   44 1
    29   12   13 ar
    30   12   14 1
    31   13   59 1
    32   14   19 1
    33   14   15 1
    34   15   16 1
    35   15   45 1
    36   15   46 1
    37   16   17 1
    38   16   47 1
    39   16   48 1
    40   17   18 1
    41   17   20 1
    42   18   19 1
    43   18   49 1
    44   18   50 1
    45   19   51 1
    46   19   52 1
    47   20   53 1
    48   20   54 1
    49   20   55 1
    50   21   22 am
    51   21   56 1
    52   22   23 2
    53   22   24 1
    54   24   28 1
    55   24   25 2
    56   25   26 1
    57   25   57 1
    58   26   27 2
    59   26   58 1
    60   27   28 1
    61   27   29 1
    62   29   30 3
@<TRIPOS>MOLECULE
CHEMBL252834__2
   60    63     0     0     0
SMALL
USER_CHARGES

@<TRIPOS>ATOM
      1 C1         -0.8273   -0.0176   -2.4456 C.3       1 <0>        -0.1525
      2 C2         -0.2789   -0.7145   -1.1988 C.3       1 <0>        -0.0945
      3 C3         -0.2448   -2.2264   -1.4331 C.3       1 <0>        -0.1318
      4 C4          0.3370   -2.9179   -0.1961 C.3       1 <0>         0.1235
      5 N1         -0.4373   -2.5073    0.9831 N.pl3     1 <0>        -0.6661
      6 C5         -0.6091   -1.0729    1.2511 C.3       1 <0>         0.1292
      7 C6         -1.1803   -0.4022   -0.0021 C.3       1 <0>        -0.1324
      8 C7         -0.9976   -3.4589    1.8300 C.ar      1 <0>         0.3911
      9 C8         -0.2294   -4.0077    2.8580 C.ar      1 <0>         0.1393
     10 C9         -0.8009   -4.9572    3.6968 C.ar      1 <0>         0.0280
     11 C10        -2.1193   -5.3249    3.4790 C.ar      1 <0>        -0.1669
     12 C11        -2.8256   -4.7383    2.4370 C.ar      1 <0>         0.4265
     13 N2         -2.2560   -3.8315    1.6565 N.ar      1 <0>        -0.4906
     14 N3         -4.1502   -5.1035    2.2132 N.pl3     1 <0>        -0.6252
     15 C12        -4.8513   -6.0097    3.1359 C.3       1 <0>         0.0940
     16 C13        -6.1894   -5.3705    3.5214 C.3       1 <0>        -0.0253
     17 N4         -6.9429   -5.0429    2.3044 N.4       1 <0>        -0.3864
     18 C14        -6.2251   -4.0213    1.5316 C.3       1 <0>        -0.0219
     19 C15        -4.8905   -4.5892    1.0506 C.3       1 <0>         0.0815
     20 C16        -8.2695   -4.5320    2.6746 C.3       1 <0>        -0.0498
     21 N5          1.1021   -3.6065    3.0419 N.am      1 <0>        -0.6495
     22 C17         1.6799   -3.7237    4.2538 C.2       1 <0>         0.6248
     23 O1          1.0188   -4.0802    5.2112 O.2       1 <0>        -0.4808
     24 C18         3.1087   -3.4209    4.4192 C.2       1 <0>        -0.0770
     25 C19         3.8119   -3.5052    5.5879 C.2       1 <0>        -0.0810
     26 C20         5.1296   -3.1321    5.3007 C.2       1 <0>        -0.1326
     27 C21         5.1748   -2.8333    3.9568 C.2       1 <0>         0.1130
     28 O2          3.9451   -3.0196    3.4431 O.3       1 <0>        -0.1492
     29 C22         6.3320   -2.4041    3.2306 C.1       1 <0>         0.2641
     30 N6          7.2500   -2.0636    2.6546 N.1       1 <0>        -0.3290
     31 H1         -0.8505    1.0594   -2.2793 H         1 <0>         0.0628
     32 H2         -0.1854   -0.2399   -3.2981 H         1 <0>         0.0634
     33 H3         -1.8367   -0.3759   -2.6477 H         1 <0>         0.0529
     34 H4          0.7303   -0.3557   -0.9966 H         1 <0>         0.0815
     35 H5         -1.2570   -2.5899   -1.6108 H         1 <0>         0.0624
     36 H6          0.3786   -2.4463   -2.2998 H         1 <0>         0.0898
     37 H7          0.2721   -3.9991   -0.3175 H         1 <0>         0.0814
     38 H8          1.3790   -2.6241   -0.0695 H         1 <0>         0.0854
     39 H9         -1.2982   -0.9369    2.0847 H         1 <0>         0.0775
     40 H10         0.3558   -0.6288    1.4957 H         1 <0>         0.0862
     41 H11        -1.2227    0.6764    0.1498 H         1 <0>         0.0886
     42 H12        -2.1836   -0.7829   -0.1933 H         1 <0>         0.0602
     43 H13        -0.2301   -5.3990    4.5002 H         1 <0>         0.2003
     44 H14        -2.5924   -6.0602    4.1129 H         1 <0>         0.1887
     45 H15        -5.0302   -6.9661    2.6446 H         1 <0>         0.1187
     46 H16        -4.2467   -6.1614    4.0301 H         1 <0>         0.1427
     47 H17        -6.7649   -6.0697    4.1280 H         1 <0>         0.1597
     48 H18        -6.0063   -4.4598    4.0917 H         1 <0>         0.1401
     49 H19        -6.8269   -3.7263    0.6720 H         1 <0>         0.1575
     50 H20        -6.0409   -3.1514    2.1621 H         1 <0>         0.1386
     51 H21        -4.3119   -3.8022    0.5669 H         1 <0>         0.1140
     52 H22        -5.0735   -5.3997    0.3452 H         1 <0>         0.1217
     53 H23        -8.1565   -3.6361    3.2850 H         1 <0>         0.1260
     54 H24        -8.8299   -4.2885    1.7720 H         1 <0>         0.1317
     55 H25        -8.8065   -5.2925    3.2415 H         1 <0>         0.1339
     56 H26         1.6069   -3.2448    2.2968 H         1 <0>         0.4326
     57 H27         3.4239   -3.8027    6.5509 H         1 <0>         0.1827
     58 H28         5.9526   -3.0865    5.9986 H         1 <0>         0.1842
     59 H29        -2.7725   -3.4340    0.9380 H         1 <0>         0.4316
     60 H30        -7.0500   -5.8742    1.7427 H         1 <0>         0.4307
@<TRIPOS>BOND
     1    1    2 1
     2    1   31 1
     3    1   32 1
     4    1   33 1
     5    2    7 1
     6    2    3 1
     7    2   34 1
     8    3    4 1
     9    3   35 1
    10    3   36 1
    11    4    5 1
    12    4   37 1
    13    4   38 1
    14    5    6 1
    15    5    8 1
    16    6    7 1
    17    6   39 1
    18    6   40 1
    19    7   41 1
    20    7   42 1
    21    8   13 ar
    22    8    9 ar
    23    9   10 ar
    24    9   21 1
    25   10   11 ar
    26   10   43 1
    27   11   12 ar
    28   11   44 1
    29   12   13 ar
    30   12   14 1
    31   13   59 1
    32   14   19 1
    33   14   15 1
    34   15   16 1
    35   15   45 1
    36   15   46 1
    37   16   17 1
    38   16   47 1
    39   16   48 1
    40   17   18 1
    41   17   20 1
    42   17   60 1
    43   18   19 1
    44   18   49 1
    45   18   50 1
    46   19   51 1
    47   19   52 1
    48   20   53 1
    49   20   54 1
    50   20   55 1
    51   21   22 am
    52   21   56 1
    53   22   23 2
    54   22   24 1
    55   24   28 1
    56   24   25 2
    57   25   26 1
    58   25   57 1
    59   26   27 2
    60   26   58 1
    61   27   28 1
    62   27   29 1
    63   29   30 3
@<TRIPOS>MOLECULE
CHEMBL251842
   59    62     0     0     0
SMALL
USER_CHARGES

@<TRIPOS>ATOM
      1 C1          0.0229    1.5263    0.0345 C.3       1 <0>        -0.1510
      2 C2          0.0413   -0.0036    0.0247 C.3       1 <0>        -0.0882
      3 C3         -1.3955   -0.5307    0.0171 C.3       1 <0>        -0.1361
      4 C4         -1.3731   -2.0618   -0.0277 C.3       1 <0>         0.1412
      5 N1         -0.5551   -2.5557    1.0884 N.pl3     1 <0>        -0.6765
      6 C5          0.8135   -2.0437    1.2418 C.3       1 <0>         0.1420
      7 C6          0.7667   -0.5128    1.2723 C.3       1 <0>        -0.1360
      8 C7         -1.0696   -3.4951    1.9880 C.ar      1 <0>         0.1469
      9 C8         -0.9147   -4.8550    1.7518 C.ar      1 <0>        -0.1219
     10 C9         -1.4440   -5.7521    2.6768 C.ar      1 <0>         0.1259
     11 C10        -2.1034   -5.2623    3.7951 C.ar      1 <0>         0.0718
     12 N2         -2.2338   -3.9636    3.9900 N.ar      1 <0>        -0.4302
     13 C11        -1.7414   -3.0790    3.1397 C.ar      1 <0>         0.3187
     14 N3         -1.8994   -1.7145    3.3929 N.am      1 <0>        -0.6456
     15 C12        -2.5465   -1.3054    4.5021 C.2       1 <0>         0.5960
     16 O1         -2.9930   -2.1247    5.2829 O.2       1 <0>        -0.4426
     17 C13        -2.7128    0.1304    4.7685 C.2       1 <0>        -0.0476
     18 C14        -3.3410    0.6727    5.8543 C.2       1 <0>        -0.1101
     19 C15        -3.2730    2.0633    5.7143 C.2       1 <0>        -0.1277
     20 C16        -2.6002    2.3127    4.5385 C.2       1 <0>         0.0806
     21 O2         -2.2665    1.1317    3.9865 O.3       1 <0>        -0.1476
     22 C17        -2.3027    3.6055    3.9993 C.1       1 <0>         0.2764
     23 N4         -2.0667    4.6311    3.5716 N.1       1 <0>        -0.3497
     24 N5         -1.3125   -7.1312    2.4802 N.pl3     1 <0>        -0.6399
     25 C18        -0.7211   -7.6661    1.2440 C.3       1 <0>         0.1005
     26 C19         0.3676   -8.6753    1.6236 C.3       1 <0>        -0.0229
     27 N6         -0.2006   -9.6951    2.5142 N.4       1 <0>        -0.3837
     28 C20        -0.6236   -9.0767    3.7770 C.3       1 <0>        -0.0230
     29 C21        -1.7563   -8.0872    3.5065 C.3       1 <0>         0.0999
     30 C22         0.8130  -10.7221    2.7893 C.3       1 <0>        -0.0471
     31 H1          1.0461    1.9019    0.0387 H         1 <0>         0.0574
     32 H2         -0.4937    1.8892   -0.8540 H         1 <0>         0.0576
     33 H3         -0.4968    1.8777    0.9259 H         1 <0>         0.0527
     34 H4          0.5614   -0.3547   -0.8665 H         1 <0>         0.0740
     35 H5         -1.9089   -0.2006    0.9202 H         1 <0>         0.0598
     36 H6         -1.9185   -0.1487   -0.8596 H         1 <0>         0.0770
     37 H7         -2.3892   -2.4450    0.0665 H         1 <0>         0.0699
     38 H8         -0.9414   -2.3935   -0.9720 H         1 <0>         0.0596
     39 H9          1.2402   -2.4149    2.1736 H         1 <0>         0.0687
     40 H10         1.4236   -2.3739    0.4010 H         1 <0>         0.0590
     41 H11         1.7826   -0.1180    1.2891 H         1 <0>         0.0765
     42 H12         0.2329   -0.1828    2.1636 H         1 <0>         0.0598
     43 H13        -0.3969   -5.2082    0.8723 H         1 <0>         0.1403
     44 H14        -2.5157   -5.9532    4.5156 H         1 <0>         0.1585
     45 H15        -1.5434   -1.0613    2.7703 H         1 <0>         0.4238
     46 H16        -3.8029    0.1307    6.6662 H         1 <0>         0.1782
     47 H17        -3.6717    2.7994    6.3966 H         1 <0>         0.1780
     48 H18        -1.4916   -8.1629    0.6545 H         1 <0>         0.0892
     49 H19        -0.2814   -6.8528    0.6666 H         1 <0>         0.1238
     50 H20         0.7508   -9.1529    0.7218 H         1 <0>         0.1409
     51 H21         1.1801   -8.1585    2.1345 H         1 <0>         0.1322
     52 H22        -0.9709   -9.8501    4.4620 H         1 <0>         0.1428
     53 H23         0.2188   -8.5478    4.2227 H         1 <0>         0.1328
     54 H24        -2.0007   -7.5522    4.4242 H         1 <0>         0.1274
     55 H25        -2.6331   -8.6273    3.1493 H         1 <0>         0.0904
     56 H26         1.6767  -10.2610    3.2683 H         1 <0>         0.1216
     57 H27         0.3924  -11.4798    3.4504 H         1 <0>         0.1257
     58 H28         1.1221  -11.1875    1.8534 H         1 <0>         0.1250
     59 H29        -0.9974  -10.1236    2.0675 H         1 <0>         0.4251
@<TRIPOS>BOND
     1    1    2 1
     2    1   31 1
     3    1   32 1
     4    1   33 1
     5    2    7 1
     6    2    3 1
     7    2   34 1
     8    3    4 1
     9    3   35 1
    10    3   36 1
    11    4    5 1
    12    4   37 1
    13    4   38 1
    14    5    6 1
    15    5    8 1
    16    6    7 1
    17    6   39 1
    18    6   40 1
    19    7   41 1
    20    7   42 1
    21    8   13 ar
    22    8    9 ar
    23    9   10 ar
    24    9   43 1
    25   10   11 ar
    26   10   24 1
    27   11   12 ar
    28   11   44 1
    29   12   13 ar
    30   13   14 1
    31   14   15 am
    32   14   45 1
    33   15   16 2
    34   15   17 1
    35   17   21 1
    36   17   18 2
    37   18   19 1
    38   18   46 1
    39   19   20 2
    40   19   47 1
    41   20   21 1
    42   20   22 1
    43   22   23 3
    44   24   29 1
    45   24   25 1
    46   25   26 1
    47   25   48 1
    48   25   49 1
    49   26   27 1
    50   26   50 1
    51   26   51 1
    52   27   28 1
    53   27   30 1
    54   27   59 1
    55   28   29 1
    56   28   52 1
    57   28   53 1
    58   29   54 1
    59   29   55 1
    60   30   56 1
    61   30   57 1
    62   30   58 1
@<TRIPOS>MOLECULE
CHEMBL251842__1
   58    61     0     0     0
SMALL
USER_CHARGES

@<TRIPOS>ATOM
      1 C1          0.0242    1.5263    0.0353 C.3       1 <0>        -0.1490
      2 C2          0.0425   -0.0035    0.0254 C.3       1 <0>        -0.0883
      3 C3         -1.3943   -0.5306    0.0173 C.3       1 <0>        -0.1343
      4 C4         -1.3720   -2.0617   -0.0275 C.3       1 <0>         0.1419
      5 N1         -0.5543   -2.5557    1.0888 N.pl3     1 <0>        -0.6745
      6 C5          0.8142   -2.0437    1.2427 C.3       1 <0>         0.1421
      7 C6          0.7675   -0.5128    1.2733 C.3       1 <0>        -0.1342
      8 C7         -1.0692   -3.4951    1.9882 C.ar      1 <0>         0.1494
      9 C8         -0.9143   -4.8549    1.7520 C.ar      1 <0>        -0.1403
     10 C9         -1.4440   -5.7521    2.6768 C.ar      1 <0>         0.1595
     11 C10        -2.1037   -5.2623    3.7949 C.ar      1 <0>         0.0510
     12 N2         -2.2342   -3.9636    3.9897 N.ar      1 <0>        -0.4265
     13 C11        -1.7414   -3.0790    3.1397 C.ar      1 <0>         0.2867
     14 N3         -1.8994   -1.7145    3.3928 N.am      1 <0>        -0.6416
     15 C12        -2.5469   -1.3054    4.5019 C.2       1 <0>         0.5894
     16 O1         -2.9937   -2.1247    5.2825 O.2       1 <0>        -0.4446
     17 C13        -2.7132    0.1304    4.7682 C.2       1 <0>        -0.0347
     18 C14        -3.3418    0.6727    5.8539 C.2       1 <0>        -0.1195
     19 C15        -3.2737    2.0633    5.7139 C.2       1 <0>        -0.1262
     20 C16        -2.6005    2.3127    4.5383 C.2       1 <0>         0.0691
     21 O2         -2.2666    1.1317    3.9864 O.3       1 <0>        -0.1463
     22 C17        -2.3027    3.6055    3.9993 C.1       1 <0>         0.2822
     23 N4         -2.0665    4.6311    3.5717 N.1       1 <0>        -0.3591
     24 N5         -1.3125   -7.1312    2.4802 N.pl3     1 <0>        -0.6243
     25 C18        -0.7211   -7.6645    1.2437 C.3       1 <0>         0.1266
     26 C19         0.3812   -8.6599    1.6213 C.3       1 <0>         0.0388
     27 N6         -0.1685   -9.6716    2.5335 N.3       1 <0>        -0.5422
     28 C20        -0.6190   -9.0647    3.7932 C.3       1 <0>         0.0381
     29 C21        -1.7566   -8.0858    3.5072 C.3       1 <0>         0.1258
     30 C22         0.8074  -10.7407    2.7836 C.3       1 <0>         0.0243
     31 H1          1.0474    1.9019    0.0398 H         1 <0>         0.0553
     32 H2         -0.4921    1.8892   -0.8534 H         1 <0>         0.0555
     33 H3         -0.4958    1.8777    0.9265 H         1 <0>         0.0518
     34 H4          0.5629   -0.3547   -0.8656 H         1 <0>         0.0730
     35 H5         -1.9080   -0.2005    0.9202 H         1 <0>         0.0592
     36 H6         -1.9170   -0.1485   -0.8596 H         1 <0>         0.0735
     37 H7         -2.3881   -2.4448    0.0663 H         1 <0>         0.0700
     38 H8         -0.9400   -2.3934   -0.9717 H         1 <0>         0.0565
     39 H9          1.2406   -2.4150    2.1746 H         1 <0>         0.0692
     40 H10         1.4245   -2.3739    0.4021 H         1 <0>         0.0563
     41 H11         1.7833   -0.1181    1.2904 H         1 <0>         0.0732
     42 H12         0.2334   -0.1829    2.1644 H         1 <0>         0.0592
     43 H13        -0.3962   -5.2082    0.8727 H         1 <0>         0.1390
     44 H14        -2.5164   -5.9532    4.5152 H         1 <0>         0.1586
     45 H15        -1.5432   -1.0613    2.7705 H         1 <0>         0.4198
     46 H16        -3.8040    0.1307    6.6656 H         1 <0>         0.1773
     47 H17        -3.6726    2.7994    6.3961 H         1 <0>         0.1754
     48 H18        -1.4888   -8.1724    0.6600 H         1 <0>         0.0726
     49 H19        -0.2937   -6.8487    0.6607 H         1 <0>         0.0844
     50 H20         0.7554   -9.1470    0.7208 H         1 <0>         0.0862
     51 H21         1.1963   -8.1302    2.1142 H         1 <0>         0.0384
     52 H22        -0.9702   -9.8455    4.4679 H         1 <0>         0.0883
     53 H23         0.2101   -8.5294    4.2559 H         1 <0>         0.0388
     54 H24        -2.0136   -7.5484    4.4200 H         1 <0>         0.0879
     55 H25        -2.6258   -8.6350    3.1453 H         1 <0>         0.0738
     56 H26         1.7048  -10.3156    3.2330 H         1 <0>         0.0260
     57 H27         0.3747  -11.4762    3.4619 H         1 <0>         0.0711
     58 H28         1.0667  -11.2237    1.8414 H         1 <0>         0.0707
@<TRIPOS>BOND
     1    1    2 1
     2    1   31 1
     3    1   32 1
     4    1   33 1
     5    2    7 1
     6    2    3 1
     7    2   34 1
     8    3    4 1
     9    3   35 1
    10    3   36 1
    11    4    5 1
    12    4   37 1
    13    4   38 1
    14    5    6 1
    15    5    8 1
    16    6    7 1
    17    6   39 1
    18    6   40 1
    19    7   41 1
    20    7   42 1
    21    8   13 ar
    22    8    9 ar
    23    9   10 ar
    24    9   43 1
    25   10   11 ar
    26   10   24 1
    27   11   12 ar
    28   11   44 1
    29   12   13 ar
    30   13   14 1
    31   14   15 am
    32   14   45 1
    33   15   16 2
    34   15   17 1
    35   17   21 1
    36   17   18 2
    37   18   19 1
    38   18   46 1
    39   19   20 2
    40   19   47 1
    41   20   21 1
    42   20   22 1
    43   22   23 3
    44   24   29 1
    45   24   25 1
    46   25   26 1
    47   25   48 1
    48   25   49 1
    49   26   27 1
    50   26   50 1
    51   26   51 1
    52   27   28 1
    53   27   30 1
    54   28   29 1
    55   28   52 1
    56   28   53 1
    57   29   54 1
    58   29   55 1
    59   30   56 1
    60   30   57 1
    61   30   58 1
@<TRIPOS>MOLECULE
CHEMBL591292
   73    81     0     0     0
SMALL
USER_CHARGES

@<TRIPOS>ATOM
      1 C1          0.3150    1.3342   -0.4003 C.3       1 <0>        -0.1644
      2 C2          0.2135   -0.1921   -0.4343 C.3       1 <0>         0.3542
      3 C3         -1.2073   -0.5556   -0.0222 C.3       1 <0>         0.0488
      4 H1         -1.4764   -0.0052    0.8793 H         1 <0>         0.0902
      5 C4         -1.2879   -2.0611    0.2548 C.3       1 <0>         0.1181
      6 H2         -1.0179   -2.6158   -0.6438 H         1 <0>         0.1189
      7 C5         -0.3030   -2.3906    1.3822 C.3       1 <0>        -0.1775
      8 C6          1.1064   -2.0033    0.9525 C.3       1 <0>         0.3238
      9 H3          1.7346   -2.0448    1.8423 H         1 <0>         0.1350
     10 O1          1.1819   -0.6928    0.4598 O.3       1 <0>        -0.3391
     11 N1          1.6421   -2.9800    0.0029 N.pl3     1 <0>        -0.5141
     12 C7          2.2526   -4.1703    0.3186 C.ar      1 <0>         0.1474
     13 C8          2.5208   -4.7520    1.5572 C.ar      1 <0>        -0.1430
     14 C9          3.1610   -5.9800    1.5517 C.ar      1 <0>        -0.0820
     15 C10         3.5258   -6.6161    0.3785 C.ar      1 <0>        -0.1490
     16 C11         3.2701   -6.0590   -0.8637 C.ar      1 <0>        -0.0536
     17 C12         2.6261   -4.8222   -0.8776 C.ar      1 <0>        -0.0917
     18 C13         2.2062   -3.9527   -1.9782 C.ar      1 <0>        -0.0613
     19 C14         1.6095   -2.8337   -1.3759 C.ar      1 <0>         0.1540
     20 C15         1.1007   -1.7999   -2.1700 C.ar      1 <0>         0.1077
     21 N2          0.4620   -0.6088   -1.8151 N.pl3     1 <0>        -0.5019
     22 C16         0.1313    0.0906   -2.9488 C.ar      1 <0>         0.1794
     23 C17        -0.4978    1.3254   -3.1047 C.ar      1 <0>        -0.1472
     24 C18        -0.6950    1.7736   -4.3996 C.ar      1 <0>        -0.0795
     25 C19        -0.2920    1.0417   -5.5033 C.ar      1 <0>        -0.1629
     26 C20         0.3342   -0.1861   -5.3763 C.ar      1 <0>        -0.0379
     27 C21         0.5423   -0.6555   -4.0777 C.ar      1 <0>        -0.1119
     28 C22         1.1845   -1.8801   -3.5618 C.ar      1 <0>         0.0023
     29 C23         1.7819   -3.0117   -4.1645 C.ar      1 <0>        -0.1335
     30 C24         2.2848   -4.0325   -3.3646 C.ar      1 <0>        -0.0463
     31 C25         2.8448   -5.0742   -4.3022 C.3       1 <0>         0.1451
     32 N3          2.6179   -4.5656   -5.6596 N.am      1 <0>        -0.7242
     33 C26         2.0048   -3.3730   -5.5730 C.2       1 <0>         0.5683
     34 O2          1.6782   -2.6898   -6.5247 O.2       1 <0>        -0.5236
     35 N4         -2.6485   -2.4166    0.6654 N.am      1 <0>        -0.6062
     36 C27        -3.2346   -1.8089    1.8627 C.3       1 <0>         0.0571
     37 C28        -3.3610   -3.3026   -0.0582 C.2       1 <0>         0.5628
     38 O3         -2.8423   -3.8804   -0.9934 O.2       1 <0>        -0.5144
     39 C29        -4.7736   -3.5717    0.2854 C.ar      1 <0>        -0.1336
     40 C30        -5.5618   -2.5667    0.8481 C.ar      1 <0>        -0.1004
     41 C31        -6.8794   -2.8242    1.1659 C.ar      1 <0>        -0.1264
     42 C32        -7.4195   -4.0757    0.9285 C.ar      1 <0>        -0.0924
     43 C33        -6.6435   -5.0766    0.3714 C.ar      1 <0>        -0.1236
     44 C34        -5.3264   -4.8303    0.0431 C.ar      1 <0>        -0.0613
     45 O4         -2.1108   -0.2155   -1.0758 O.3       1 <0>        -0.3469
     46 C35        -3.4212    0.1360   -0.6269 C.3       1 <0>         0.0163
     47 H4          1.1262    1.6590   -1.0518 H         1 <0>         0.0847
     48 H5         -0.6236    1.7684   -0.7446 H         1 <0>         0.0967
     49 H6          0.5145    1.6624    0.6198 H         1 <0>         0.0875
     50 H7         -0.5761   -1.8329    2.2780 H         1 <0>         0.1013
     51 H8         -0.3376   -3.4592    1.5944 H         1 <0>         0.1021
     52 H9          2.2418   -4.2659    2.4804 H         1 <0>         0.1296
     53 H10         3.3832   -6.4569    2.4949 H         1 <0>         0.1262
     54 H11         4.0238   -7.5729    0.4327 H         1 <0>         0.1254
     55 H12         3.5555   -6.5588   -1.7776 H         1 <0>         0.1359
     56 H13        -0.8176    1.9066   -2.2524 H         1 <0>         0.1357
     57 H14        -1.1799    2.7263   -4.5539 H         1 <0>         0.1221
     58 H15        -0.4716    1.4397   -6.4911 H         1 <0>         0.1218
     59 H16         0.6465   -0.7541   -6.2401 H         1 <0>         0.1499
     60 H17         3.9123   -5.2039   -4.1240 H         1 <0>         0.0995
     61 H18         2.3234   -6.0215   -4.1647 H         1 <0>         0.0993
     62 H19         2.8699   -5.0143   -6.4818 H         1 <0>         0.4264
     63 H20        -3.7562   -0.8924    1.5868 H         1 <0>         0.0645
     64 H21        -3.9396   -2.5058    2.3159 H         1 <0>         0.0883
     65 H22        -2.4441   -1.5764    2.5762 H         1 <0>         0.0751
     66 H23        -5.1412   -1.5896    1.0345 H         1 <0>         0.1342
     67 H24        -7.4904   -2.0474    1.6014 H         1 <0>         0.1304
     68 H25        -8.4514   -4.2723    1.1795 H         1 <0>         0.1293
     69 H26        -7.0711   -6.0514    0.1889 H         1 <0>         0.1319
     70 H27        -4.7230   -5.6109   -0.3962 H         1 <0>         0.1324
     71 H28        -4.0461    0.3805   -1.4859 H         1 <0>         0.0931
     72 H29        -3.8580   -0.7043   -0.0873 H         1 <0>         0.0514
     73 H30        -3.3590    0.9999    0.0348 H         1 <0>         0.0458
@<TRIPOS>BOND
     1    1    2 1
     2    1   47 1
     3    1   48 1
     4    1   49 1
     5    2   10 1
     6    2   21 1
     7    2    3 1
     8    3    4 1
     9    3    5 1
    10    3   45 1
    11    5    6 1
    12    5    7 1
    13    5   35 1
    14    7    8 1
    15    7   50 1
    16    7   51 1
    17    8    9 1
    18    8   10 1
    19    8   11 1
    20   11   19 1
    21   11   12 1
    22   12   17 ar
    23   12   13 ar
    24   13   14 ar
    25   13   52 1
    26   14   15 ar
    27   14   53 1
    28   15   16 ar
    29   15   54 1
    30   16   17 ar
    31   16   55 1
    32   17   18 1
    33   18   30 ar
    34   18   19 ar
    35   19   20 ar
    36   20   28 ar
    37   20   21 1
    38   21   22 1
    39   22   27 ar
    40   22   23 ar
    41   23   24 ar
    42   23   56 1
    43   24   25 ar
    44   24   57 1
    45   25   26 ar
    46   25   58 1
    47   26   27 ar
    48   26   59 1
    49   27   28 1
    50   28   29 ar
    51   29   33 1
    52   29   30 ar
    53   30   31 1
    54   31   32 1
    55   31   60 1
    56   31   61 1
    57   32   33 am
    58   32   62 1
    59   33   34 2
    60   35   36 1
    61   35   37 am
    62   36   63 1
    63   36   64 1
    64   36   65 1
    65   37   38 2
    66   37   39 1
    67   39   44 ar
    68   39   40 ar
    69   40   41 ar
    70   40   66 1
    71   41   42 ar
    72   41   67 1
    73   42   43 ar
    74   42   68 1
    75   43   44 ar
    76   43   69 1
    77   44   70 1
    78   45   46 1
    79   46   71 1
    80   46   72 1
    81   46   73 1
@<TRIPOS>MOLECULE
CHEMBL514499
   51    54     0     0     0
SMALL
USER_CHARGES

@<TRIPOS>ATOM
      1 C1         -0.0173    1.4248    0.0099 C.3       1 <0>         0.0222
      2 O1          0.0021   -0.0041    0.0020 O.3       1 <0>        -0.2998
      3 C2         -1.2015   -0.6381    0.0101 C.ar      1 <0>         0.1125
      4 C3         -2.3661    0.1012    0.0194 C.ar      1 <0>        -0.1250
      5 C4         -3.6027   -0.5507    0.0273 C.ar      1 <0>         0.0605
      6 C5         -3.6468   -1.9546    0.0256 C.ar      1 <0>         0.0543
      7 C6         -2.4686   -2.6876    0.0161 C.ar      1 <0>        -0.1733
      8 C7         -1.2512   -2.0332    0.0031 C.ar      1 <0>         0.1402
      9 O2         -0.0963   -2.7517   -0.0113 O.3       1 <0>        -0.2949
     10 C8         -0.2182   -4.1755   -0.0179 C.3       1 <0>         0.0213
     11 N1         -4.9894   -2.2941    0.0346 N.pl3     1 <0>        -0.4136
     12 C9         -5.7000   -1.1293    0.0413 C.2       1 <0>         0.2750
     13 N2         -4.8891   -0.1123    0.0371 N.2       1 <0>        -0.4656
     14 C10        -5.5155   -3.5826    0.0365 C.2       1 <0>         0.1205
     15 C11        -6.4727   -4.1169    0.8562 C.2       1 <0>        -0.2339
     16 C12        -6.8486   -5.4259    0.6811 C.2       1 <0>         0.1984
     17 C13        -6.2334   -6.1589   -0.3323 C.2       1 <0>        -0.2746
     18 S1         -5.1185   -4.9542   -1.0343 S.3       1 <0>         0.1484
     19 C14        -6.4419   -7.5045   -0.7095 C.2       1 <0>         0.6130
     20 O3         -7.2575   -8.1850   -0.1129 O.2       1 <0>        -0.5182
     21 N3         -5.7384   -8.0353   -1.7292 N.am      1 <0>        -0.8524
     22 O4         -7.7943   -5.9914    1.4745 O.3       1 <0>        -0.2616
     23 C15        -8.3707   -5.1643    2.4873 C.3       1 <0>         0.0759
     24 C16        -9.3919   -5.9567    3.2620 C.ar      1 <0>        -0.0453
     25 C17        -9.6309   -7.2795    2.9387 C.ar      1 <0>        -0.0945
     26 C18       -10.5675   -8.0062    3.6492 C.ar      1 <0>        -0.0830
     27 C19       -11.2651   -7.4106    4.6837 C.ar      1 <0>        -0.1160
     28 C20       -11.0255   -6.0884    5.0075 C.ar      1 <0>        -0.0710
     29 C21       -10.0855   -5.3627    4.2995 C.ar      1 <0>        -0.1786
     30 C22        -9.8205   -3.9227    4.6561 C.3       1 <0>         0.5060
     31 F1        -10.6368   -3.5502    5.7295 F         1 <0>        -0.1717
     32 F2         -8.4774   -3.7712    5.0170 F         1 <0>        -0.1762
     33 F3        -10.1014   -3.1098    3.5526 F         1 <0>        -0.1763
     34 H1          1.0053    1.8021    0.0021 H         1 <0>         0.1048
     35 H2         -0.5445    1.7859   -0.8732 H         1 <0>         0.0587
     36 H3         -0.5275    1.7763    0.9067 H         1 <0>         0.0586
     37 H4         -2.3227    1.1803    0.0210 H         1 <0>         0.1508
     38 H5         -2.5028   -3.7670    0.0152 H         1 <0>         0.1403
     39 H6         -0.7529   -4.4985    0.8753 H         1 <0>         0.0573
     40 H7         -0.7692   -4.4889   -0.9045 H         1 <0>         0.0579
     41 H8          0.7747   -4.6250   -0.0294 H         1 <0>         0.1068
     42 H9         -6.7778   -1.0617    0.0488 H         1 <0>         0.2231
     43 H10        -6.9263   -3.5166    1.6309 H         1 <0>         0.1587
     44 H11        -5.0890   -7.4935   -2.2042 H         1 <0>         0.3976
     45 H12        -5.8815   -8.9591   -1.9882 H         1 <0>         0.4106
     46 H13        -7.5885   -4.8199    3.1638 H         1 <0>         0.0901
     47 H14        -8.8539   -4.3046    2.0229 H         1 <0>         0.0906
     48 H15        -9.0860   -7.7448    2.1306 H         1 <0>         0.1533
     49 H16       -10.7547   -9.0393    3.3961 H         1 <0>         0.1374
     50 H17       -11.9975   -7.9782    5.2384 H         1 <0>         0.1384
     51 H18       -11.5707   -5.6230    5.8154 H         1 <0>         0.1426
@<TRIPOS>BOND
     1    1    2 1
     2    1   34 1
     3    1   35 1
     4    1   36 1
     5    2    3 1
     6    3    8 ar
     7    3    4 ar
     8    4    5 ar
     9    4   37 1
    10    5   13 1
    11    5    6 ar
    12    6    7 ar
    13    6   11 1
    14    7    8 ar
    15    7   38 1
    16    8    9 1
    17    9   10 1
    18   10   39 1
    19   10   40 1
    20   10   41 1
    21   11   12 1
    22   11   14 1
    23   12   13 2
    24   12   42 1
    25   14   18 1
    26   14   15 2
    27   15   16 1
    28   15   43 1
    29   16   17 2
    30   16   22 1
    31   17   18 1
    32   17   19 1
    33   19   20 2
    34   19   21 am
    35   21   44 1
    36   21   45 1
    37   22   23 1
    38   23   24 1
    39   23   46 1
    40   23   47 1
    41   24   29 ar
    42   24   25 ar
    43   25   26 ar
    44   25   48 1
    45   26   27 ar
    46   26   49 1
    47   27   28 ar
    48   27   50 1
    49   28   29 ar
    50   28   51 1
    51   29   30 1
    52   30   31 1
    53   30   32 1
    54   30   33 1
@<TRIPOS>MOLECULE
CHEMBL231568
   63    67     0     0     0
SMALL
USER_CHARGES

@<TRIPOS>ATOM
      1 C1         -0.4825   -5.3868   -6.9888 C.3       1 <0>         0.0845
      2 N1         -0.9564   -4.6292   -5.8278 N.am      1 <0>        -0.7123
      3 C2         -1.3640   -5.2791   -4.7197 C.2       1 <0>         0.5702
      4 O1         -1.3385   -6.4934   -4.6836 O.2       1 <0>        -0.5315
      5 C3         -1.8433   -4.5128   -3.5455 C.ar      1 <0>         0.1140
      6 C4         -2.2572   -5.1898   -2.4030 C.ar      1 <0>        -0.1890
      7 C5         -2.7049   -4.4548   -1.3082 C.ar      1 <0>         0.1564
      8 C6         -2.7189   -3.0659   -1.4048 C.ar      1 <0>        -0.1714
      9 C7         -2.2916   -2.4648   -2.5749 C.ar      1 <0>         0.1375
     10 N2         -1.8686   -3.1858   -3.5915 N.ar      1 <0>        -0.4783
     11 O2         -3.1178   -5.0772   -0.1748 O.3       1 <0>        -0.2393
     12 C8         -3.1715   -6.4357   -0.1759 C.ar      1 <0>         0.0882
     13 C9         -1.9985   -7.1754   -0.0660 C.ar      1 <0>        -0.1104
     14 C10        -2.0400   -8.5544   -0.0659 C.ar      1 <0>        -0.0597
     15 C11        -3.2554   -9.2104   -0.1759 C.ar      1 <0>         0.0061
     16 C12        -4.4423   -8.4707   -0.2871 C.ar      1 <0>         0.0684
     17 C13        -4.3920   -7.0762   -0.2806 C.ar      1 <0>        -0.0676
     18 N3         -5.4572   -9.3733   -0.3783 N.2       1 <0>        -0.5060
     19 C14        -4.9520  -10.5795   -0.3287 C.2       1 <0>         0.4912
     20 O3         -3.6146  -10.5152   -0.2057 O.3       1 <0>        -0.2163
     21 N4         -5.6839  -11.7451   -0.3925 N.pl3     1 <0>        -0.6096
     22 C15        -5.0547  -12.9778   -0.1905 C.ar      1 <0>         0.2098
     23 C16        -3.9055  -13.0530    0.5868 C.ar      1 <0>        -0.1627
     24 C17        -3.2837  -14.2702    0.7860 C.ar      1 <0>        -0.0305
     25 C18        -3.8028  -15.4167    0.2127 C.ar      1 <0>        -0.0819
     26 C19        -4.9513  -15.3471   -0.5646 C.ar      1 <0>         0.1620
     27 C20        -5.5808  -14.1282   -0.7617 C.ar      1 <0>        -0.2303
     28 O4         -5.4605  -16.4744   -1.1280 O.3       1 <0>        -0.2869
     29 C21        -6.6442  -16.3286   -1.9152 C.3       1 <0>         0.0382
     30 C22        -7.0643  -17.6942   -2.4623 C.3       1 <0>         0.0225
     31 H1         -7.3052  -18.3656   -1.6381 H         1 <0>         0.1525
     32 C23        -5.9233  -18.2933   -3.3111 C.3       1 <0>        -0.1305
     33 C24        -6.6793  -18.9743   -4.4822 C.3       1 <0>        -0.1444
     34 C25        -7.8594  -17.9956   -4.7039 C.3       1 <0>        -0.0100
     35 N5         -8.2361  -17.5424   -3.3443 N.4       1 <0>        -0.3843
     36 C26        -8.6430  -16.1315   -3.3872 C.3       1 <0>        -0.0632
     37 Cl1        -3.0175  -16.9443    0.4647 Cl        1 <0>        -0.0411
     38 H2         -0.1980   -4.6957   -7.7821 H         1 <0>         0.0817
     39 H3          0.3811   -5.9872   -6.7029 H         1 <0>         0.0636
     40 H4         -1.2782   -6.0412   -7.3450 H         1 <0>         0.0623
     41 H5         -0.9767   -3.6598   -5.8567 H         1 <0>         0.4151
     42 H6         -2.2322   -6.2689   -2.3658 H         1 <0>         0.1531
     43 H7         -3.0601   -2.4644   -0.5753 H         1 <0>         0.1549
     44 H8         -2.3012   -1.3877   -2.6540 H         1 <0>         0.1773
     45 H9         -1.0494   -6.6670    0.0195 H         1 <0>         0.1533
     46 H10        -1.1254   -9.1224    0.0194 H         1 <0>         0.1493
     47 H11        -5.3019   -6.5001   -0.3614 H         1 <0>         0.1500
     48 H12        -6.6354  -11.7108   -0.5774 H         1 <0>         0.4436
     49 H13        -3.4980  -12.1590    1.0353 H         1 <0>         0.1474
     50 H14        -2.3903  -14.3267    1.3902 H         1 <0>         0.1547
     51 H15        -6.4765  -14.0728   -1.3625 H         1 <0>         0.1397
     52 H16        -7.4446  -15.9233   -1.2961 H         1 <0>         0.0889
     53 H17        -6.4475  -15.6496   -2.7449 H         1 <0>         0.0880
     54 H18        -5.2655  -17.5074   -3.6822 H         1 <0>         0.1013
     55 H19        -5.3606  -19.0288   -2.7362 H         1 <0>         0.1198
     56 H20        -6.0503  -19.0349   -5.3703 H         1 <0>         0.1201
     57 H21        -7.0398  -19.9614   -4.1928 H         1 <0>         0.1016
     58 H22        -7.5413  -17.1493   -5.3129 H         1 <0>         0.1339
     59 H23        -8.6960  -18.5106   -5.1760 H         1 <0>         0.1395
     60 H24        -7.8513  -15.5387   -3.8452 H         1 <0>         0.1250
     61 H25        -9.5559  -16.0344   -3.9748 H         1 <0>         0.1309
     62 H26        -8.8239  -15.7746   -2.3733 H         1 <0>         0.1262
     63 H27        -8.9984  -18.1040   -2.9959 H         1 <0>         0.4341
@<TRIPOS>BOND
     1    1    2 1
     2    1   38 1
     3    1   39 1
     4    1   40 1
     5    2    3 am
     6    2   41 1
     7    3    4 2
     8    3    5 1
     9    5   10 ar
    10    5    6 ar
    11    6    7 ar
    12    6   42 1
    13    7    8 ar
    14    7   11 1
    15    8    9 ar
    16    8   43 1
    17    9   10 ar
    18    9   44 1
    19   11   12 1
    20   12   17 ar
    21   12   13 ar
    22   13   14 ar
    23   13   45 1
    24   14   15 ar
    25   14   46 1
    26   15   20 1
    27   15   16 ar
    28   16   17 ar
    29   16   18 1
    30   17   47 1
    31   18   19 2
    32   19   20 1
    33   19   21 1
    34   21   22 1
    35   21   48 1
    36   22   27 ar
    37   22   23 ar
    38   23   24 ar
    39   23   49 1
    40   24   25 ar
    41   24   50 1
    42   25   26 ar
    43   25   37 1
    44   26   27 ar
    45   26   28 1
    46   27   51 1
    47   28   29 1
    48   29   30 1
    49   29   52 1
    50   29   53 1
    51   30   31 1
    52   30   35 1
    53   30   32 1
    54   32   33 1
    55   32   54 1
    56   32   55 1
    57   33   34 1
    58   33   56 1
    59   33   57 1
    60   34   35 1
    61   34   58 1
    62   34   59 1
    63   35   36 1
    64   35   63 1
    65   36   60 1
    66   36   61 1
    67   36   62 1
@<TRIPOS>MOLECULE
CHEMBL223360
   47    50     0     0     0
SMALL
USER_CHARGES

@<TRIPOS>ATOM
      1 C1          2.8029    0.8221    0.1253 C.3       1 <0>        -0.1157
      2 C2          2.5286   -0.6548    0.2454 C.ar      1 <0>        -0.0740
      3 C3          3.0106   -1.5266   -0.7137 C.ar      1 <0>        -0.1019
      4 C4          2.7616   -2.8825   -0.6078 C.ar      1 <0>        -0.1276
      5 C5          2.0290   -3.3708    0.4589 C.ar      1 <0>         0.0668
      6 C6          1.5438   -2.4959    1.4246 C.ar      1 <0>         0.1261
      7 C7          1.8010   -1.1362    1.3165 C.ar      1 <0>        -0.0969
      8 N1          0.8015   -2.9862    2.5064 N.am      1 <0>        -0.6729
      9 C8          0.8803   -2.3800    3.7076 C.2       1 <0>         0.7081
     10 O1          1.5295   -1.3595    3.8322 O.2       1 <0>        -0.5475
     11 N2          0.2396   -2.9051    4.7707 N.am      1 <0>        -0.6835
     12 C9          0.2320   -2.2213    5.9900 C.ar      1 <0>         0.1934
     13 C10         0.2059   -0.8315    6.0058 C.ar      1 <0>        -0.1103
     14 C11         0.1984   -0.1546    7.2063 C.ar      1 <0>        -0.0627
     15 C12         0.2165   -0.8659    8.4068 C.ar      1 <0>        -0.1019
     16 C13         0.2422   -2.2610    8.3879 C.ar      1 <0>        -0.1073
     17 C14         0.2447   -2.9325    7.1843 C.ar      1 <0>        -0.1419
     18 C15         0.2089   -0.1417    9.6980 C.ar      1 <0>         0.0929
     19 C16         1.0983    0.8901    9.9338 C.ar      1 <0>        -0.1462
     20 C17         1.1022    1.5793   11.1431 C.ar      1 <0>         0.0137
     21 C18         0.2460    1.2872   12.1536 C.ar      1 <0>        -0.1619
     22 C19        -0.7014    0.2506   12.0128 C.ar      1 <0>         0.2423
     23 C20        -0.7425   -0.4984   10.7478 C.ar      1 <0>        -0.2390
     24 C21        -1.7556   -1.4376   10.8784 C.2       1 <0>         0.5280
     25 N3         -2.2969   -1.2869   12.0998 N.pl3     1 <0>        -0.4400
     26 N4         -1.6412   -0.2598   12.7881 N.pl3     1 <0>        -0.4223
     27 H1         -3.0278   -1.8169   12.4545 H         1 <0>         0.4688
     28 N5         -2.1405   -2.3648    9.9214 N.pl3     1 <0>        -0.7907
     29 F1          1.7848   -4.6955    0.5621 F         1 <0>        -0.1377
     30 H2          3.7373    1.0607    0.6333 H         1 <0>         0.0762
     31 H3          2.8825    1.0924   -0.9277 H         1 <0>         0.0724
     32 H4          1.9872    1.3816    0.5833 H         1 <0>         0.0692
     33 H5          3.5826   -1.1474   -1.5476 H         1 <0>         0.1376
     34 H6          3.1391   -3.5608   -1.3587 H         1 <0>         0.1434
     35 H7          1.4288   -0.4546    2.0670 H         1 <0>         0.1532
     36 H8          0.2307   -3.7619    2.3912 H         1 <0>         0.4135
     37 H9         -0.2164   -3.7574    4.6898 H         1 <0>         0.4142
     38 H10         0.1919   -0.2816    5.0764 H         1 <0>         0.1484
     39 H11         0.1788    0.9251    7.2179 H         1 <0>         0.1397
     40 H12         0.2567   -2.8141    9.3154 H         1 <0>         0.1325
     41 H13         0.2608   -4.0123    7.1690 H         1 <0>         0.1392
     42 H14         1.8042    1.1667    9.1647 H         1 <0>         0.1520
     43 H15         1.8155    2.3782   11.2825 H         1 <0>         0.1563
     44 H16         0.2898    1.8519   13.0731 H         1 <0>         0.1544
     45 H17        -1.6857   -2.3952    9.0651 H         1 <0>         0.4417
     46 H18        -2.8643   -2.9828   10.1083 H         1 <0>         0.4242
     47 H19        -1.8507    0.0373   13.6874 H         1 <0>         0.4733
@<TRIPOS>BOND
     1    1    2 1
     2    1   30 1
     3    1   31 1
     4    1   32 1
     5    2    7 ar
     6    2    3 ar
     7    3    4 ar
     8    3   33 1
     9    4    5 ar
    10    4   34 1
    11    5    6 ar
    12    5   29 1
    13    6    7 ar
    14    6    8 1
    15    7   35 1
    16    8    9 am
    17    8   36 1
    18    9   10 2
    19    9   11 am
    20   11   12 1
    21   11   37 1
    22   12   17 ar
    23   12   13 ar
    24   13   14 ar
    25   13   38 1
    26   14   15 ar
    27   14   39 1
    28   15   16 ar
    29   15   18 1
    30   16   17 ar
    31   16   40 1
    32   17   41 1
    33   18   23 ar
    34   18   19 ar
    35   19   20 ar
    36   19   42 1
    37   20   21 ar
    38   20   43 1
    39   21   22 ar
    40   21   44 1
    41   22   23 ar
    42   22   26 2
    43   23   24 2
    44   24   28 1
    45   24   25 1
    46   25   27 1
    47   25   26 1
    48   26   47 1
    49   28   45 1
    50   28   46 1
@<TRIPOS>MOLECULE
CHEMBL223360__1
   46    49     0     0     0
SMALL
USER_CHARGES

@<TRIPOS>ATOM
      1 C1          2.8029    0.8221    0.1253 C.3       1 <0>        -0.1150
      2 C2          2.5286   -0.6548    0.2454 C.ar      1 <0>        -0.0742
      3 C3          3.0106   -1.5266   -0.7137 C.ar      1 <0>        -0.1067
      4 C4          2.7616   -2.8825   -0.6078 C.ar      1 <0>        -0.1290
      5 C5          2.0290   -3.3708    0.4589 C.ar      1 <0>         0.0630
      6 C6          1.5438   -2.4959    1.4246 C.ar      1 <0>         0.1337
      7 C7          1.8010   -1.1362    1.3165 C.ar      1 <0>        -0.0975
      8 N1          0.8015   -2.9862    2.5064 N.am      1 <0>        -0.6777
      9 C8          0.8803   -2.3800    3.7076 C.2       1 <0>         0.7069
     10 O1          1.5295   -1.3595    3.8322 O.2       1 <0>        -0.5491
     11 N2          0.2396   -2.9051    4.7707 N.am      1 <0>        -0.6801
     12 C9          0.2320   -2.2213    5.9900 C.ar      1 <0>         0.1649
     13 C10         0.2059   -0.8315    6.0058 C.ar      1 <0>        -0.1115
     14 C11         0.1984   -0.1546    7.2063 C.ar      1 <0>        -0.0795
     15 C12         0.2165   -0.8659    8.4068 C.ar      1 <0>        -0.0587
     16 C13         0.2422   -2.2610    8.3879 C.ar      1 <0>        -0.1048
     17 C14         0.2447   -2.9325    7.1843 C.ar      1 <0>        -0.1416
     18 C15         0.2089   -0.1417    9.6980 C.ar      1 <0>         0.0447
     19 C16         1.0983    0.8901    9.9338 C.ar      1 <0>        -0.1603
     20 C17         1.1022    1.5793   11.1431 C.ar      1 <0>        -0.0619
     21 C18         0.2460    1.2872   12.1536 C.ar      1 <0>        -0.1165
     22 C19        -0.7014    0.2506   12.0128 C.ar      1 <0>         0.1402
     23 C20        -0.7425   -0.4984   10.7478 C.ar      1 <0>        -0.2596
     24 C21        -1.7556   -1.4376   10.8784 C.2       1 <0>         0.3989
     25 N3         -2.2969   -1.2869   12.0998 N.pl3     1 <0>        -0.4664
     26 N4         -1.6412   -0.2598   12.7881 N.2       1 <0>        -0.3186
     27 H1         -3.0278   -1.8169   12.4545 H         1 <0>         0.4387
     28 N5         -2.1405   -2.3648    9.9214 N.pl3     1 <0>        -0.8467
     29 F1          1.7848   -4.6955    0.5621 F         1 <0>        -0.1389
     30 H2          3.7373    1.0607    0.6333 H         1 <0>         0.0757
     31 H3          2.8825    1.0924   -0.9277 H         1 <0>         0.0704
     32 H4          1.9872    1.3816    0.5833 H         1 <0>         0.0697
     33 H5          3.5826   -1.1474   -1.5476 H         1 <0>         0.1353
     34 H6          3.1391   -3.5608   -1.3587 H         1 <0>         0.1410
     35 H7          1.4288   -0.4546    2.0670 H         1 <0>         0.1548
     36 H8          0.2307   -3.7619    2.3912 H         1 <0>         0.4119
     37 H9         -0.2164   -3.7574    4.6898 H         1 <0>         0.4101
     38 H10         0.1919   -0.2816    5.0764 H         1 <0>         0.1394
     39 H11         0.1788    0.9251    7.2179 H         1 <0>         0.1334
     40 H12         0.2567   -2.8141    9.3154 H         1 <0>         0.1321
     41 H13         0.2608   -4.0123    7.1690 H         1 <0>         0.1305
     42 H14         1.8042    1.1667    9.1647 H         1 <0>         0.1242
     43 H15         1.8155    2.3782   11.2825 H         1 <0>         0.1264
     44 H16         0.2898    1.8519   13.0731 H         1 <0>         0.1270
     45 H17        -1.6857   -2.3952    9.0651 H         1 <0>         0.4196
     46 H18        -2.8643   -2.9828   10.1083 H         1 <0>         0.4016
@<TRIPOS>BOND
     1    1    2 1
     2    1   30 1
     3    1   31 1
     4    1   32 1
     5    2    7 ar
     6    2    3 ar
     7    3    4 ar
     8    3   33 1
     9    4    5 ar
    10    4   34 1
    11    5    6 ar
    12    5   29 1
    13    6    7 ar
    14    6    8 1
    15    7   35 1
    16    8    9 am
    17    8   36 1
    18    9   10 2
    19    9   11 am
    20   11   12 1
    21   11   37 1
    22   12   17 ar
    23   12   13 ar
    24   13   14 ar
    25   13   38 1
    26   14   15 ar
    27   14   39 1
    28   15   16 ar
    29   15   18 1
    30   16   17 ar
    31   16   40 1
    32   17   41 1
    33   18   23 ar
    34   18   19 ar
    35   19   20 ar
    36   19   42 1
    37   20   21 ar
    38   20   43 1
    39   21   22 ar
    40   21   44 1
    41   22   23 ar
    42   22   26 2
    43   23   24 2
    44   24   28 1
    45   24   25 1
    46   25   27 1
    47   25   26 1
    48   28   45 1
    49   28   46 1
@<TRIPOS>MOLECULE
CHEMBL223360__2
   46    49     0     0     0
SMALL
USER_CHARGES

@<TRIPOS>ATOM
      1 C1          1.6155    1.0973   -0.1007 C.3       1 <0>        -0.1150
      2 C2          1.6411   -0.4009    0.0600 C.ar      1 <0>        -0.0749
      3 C3          2.2066   -1.1910   -0.9238 C.ar      1 <0>        -0.1055
      4 C4          2.2329   -2.5660   -0.7807 C.ar      1 <0>        -0.1297
      5 C5          1.6926   -3.1552    0.3480 C.ar      1 <0>         0.0649
      6 C6          1.1235   -2.3624    1.3384 C.ar      1 <0>         0.1329
      7 C7          1.1047   -0.9822    1.1926 C.ar      1 <0>        -0.0944
      8 N1          0.5752   -2.9549    2.4831 N.am      1 <0>        -0.6781
      9 C8          0.6629   -2.3292    3.6736 C.2       1 <0>         0.7069
     10 O1          1.1438   -1.2144    3.7405 O.2       1 <0>        -0.5492
     11 N2          0.2175   -2.9391    4.7898 N.am      1 <0>        -0.6773
     12 C9          0.2118   -2.2516    6.0073 C.ar      1 <0>         0.1694
     13 C10         0.0947   -0.8666    6.0213 C.ar      1 <0>        -0.1222
     14 C11         0.0888   -0.1863    7.2200 C.ar      1 <0>        -0.0762
     15 C12         0.2004   -0.8890    8.4199 C.ar      1 <0>        -0.0714
     16 C13         0.3178   -2.2790    8.4030 C.ar      1 <0>        -0.0892
     17 C14         0.3174   -2.9547    7.2016 C.ar      1 <0>        -0.1475
     18 C15         0.1949   -0.1606    9.7097 C.ar      1 <0>         0.0384
     19 C16        -0.8618    0.6782   10.0353 C.ar      1 <0>        -0.1556
     20 C17        -0.8678    1.3603   11.2422 C.ar      1 <0>        -0.0589
     21 C18         0.1693    1.2192   12.1374 C.ar      1 <0>        -0.1530
     22 C19         1.2433    0.3837   11.8378 C.ar      1 <0>         0.1542
     23 C20         1.2587   -0.3176   10.6186 C.ar      1 <0>        -0.1855
     24 C21         2.4943   -1.0982   10.6078 C.2       1 <0>         0.3652
     25 N3          3.1225   -0.8620   11.7296 N.2       1 <0>        -0.3214
     26 N4          2.3923    0.0448   12.5046 N.pl3     1 <0>        -0.5093
     27 H1          2.6530    0.3748   13.3787 H         1 <0>         0.4411
     28 N5          2.9263   -1.9450    9.5830 N.pl3     1 <0>        -0.8360
     29 F1          1.7173   -4.4987    0.4877 F         1 <0>        -0.1384
     30 H2          2.5227    1.5242    0.3268 H         1 <0>         0.0756
     31 H3          1.5601    1.3482   -1.1600 H         1 <0>         0.0705
     32 H4          0.7451    1.5032    0.4148 H         1 <0>         0.0697
     33 H5          2.6284   -0.7331   -1.8063 H         1 <0>         0.1354
     34 H6          2.6753   -3.1804   -1.5509 H         1 <0>         0.1411
     35 H7          0.6670   -0.3634    1.9620 H         1 <0>         0.1521
     36 H8          0.1324   -3.8156    2.4190 H         1 <0>         0.4121
     37 H9         -0.0991   -3.8551    4.7486 H         1 <0>         0.4111
     38 H10         0.0087   -0.3231    5.0920 H         1 <0>         0.1474
     39 H11        -0.0018    0.8899    7.2303 H         1 <0>         0.1314
     40 H12         0.4043   -2.8255    9.3305 H         1 <0>         0.1318
     41 H13         0.4038   -4.0312    7.1880 H         1 <0>         0.1309
     42 H14        -1.6833    0.8004    9.3449 H         1 <0>         0.1294
     43 H15        -1.6958    2.0105   11.4833 H         1 <0>         0.1327
     44 H16         0.1502    1.7577   13.0734 H         1 <0>         0.1279
     45 H17         2.4285   -1.9936    8.7519 H         1 <0>         0.4119
     46 H18         3.7238   -2.4840    9.7029 H         1 <0>         0.4050
@<TRIPOS>BOND
     1    1    2 1
     2    1   30 1
     3    1   31 1
     4    1   32 1
     5    2    7 ar
     6    2    3 ar
     7    3    4 ar
     8    3   33 1
     9    4    5 ar
    10    4   34 1
    11    5    6 ar
    12    5   29 1
    13    6    7 ar
    14    6    8 1
    15    7   35 1
    16    8    9 am
    17    8   36 1
    18    9   10 2
    19    9   11 am
    20   11   12 1
    21   11   37 1
    22   12   17 ar
    23   12   13 ar
    24   13   14 ar
    25   13   38 1
    26   14   15 ar
    27   14   39 1
    28   15   16 ar
    29   15   18 1
    30   16   17 ar
    31   16   40 1
    32   17   41 1
    33   18   23 ar
    34   18   19 ar
    35   19   20 ar
    36   19   42 1
    37   20   21 ar
    38   20   43 1
    39   21   22 ar
    40   21   44 1
    41   22   26 1
    42   22   23 ar
    43   23   24 1
    44   24   25 2
    45   24   28 1
    46   25   26 1
    47   26   27 1
    48   28   45 1
    49   28   46 1
@<TRIPOS>MOLECULE
CHEMBL1081509
   55    58     0     0     0
SMALL
USER_CHARGES

@<TRIPOS>ATOM
      1 C1         -0.1121    3.7092   -2.7181 C.3       1 <0>        -0.1417
      2 C2         -0.4643    2.3325   -2.1509 C.3       1 <0>         0.0022
      3 C3         -0.1527    2.3032   -0.6532 C.3       1 <0>        -0.1418
      4 C4         -1.9537    2.0575   -2.3674 C.3       1 <0>        -0.1480
      5 C5          0.3490    1.2765   -2.8539 C.2       1 <0>         0.0915
      6 C6          1.6913    1.1982   -2.8743 C.2       1 <0>        -0.2777
      7 C7          2.0530    0.0666   -3.6392 C.2       1 <0>         0.3493
      8 N1          0.9524   -0.5045   -4.0570 N.2       1 <0>        -0.3561
      9 O1         -0.1412    0.2478   -3.5634 O.3       1 <0>        -0.0646
     10 N2          3.3530   -0.3649   -3.9027 N.am      1 <0>        -0.6401
     11 C8          4.4034    0.3200   -3.4089 C.2       1 <0>         0.7155
     12 O2          4.2179    1.3140   -2.7337 O.2       1 <0>        -0.5406
     13 N3          5.6595   -0.0970   -3.6634 N.am      1 <0>        -0.6721
     14 C9          6.7521    0.6672   -3.2330 C.ar      1 <0>         0.1407
     15 C10         6.6859    1.3568   -2.0295 C.ar      1 <0>        -0.0969
     16 C11         7.7623    2.1097   -1.6052 C.ar      1 <0>        -0.1008
     17 C12         8.9117    2.1772   -2.3820 C.ar      1 <0>         0.1324
     18 C13         8.9780    1.4871   -3.5854 C.ar      1 <0>        -0.1219
     19 C14         7.9032    0.7303   -4.0071 C.ar      1 <0>        -0.1204
     20 N4         10.0032    2.9412   -1.9521 N.am      1 <0>        -0.6543
     21 C15        10.2940    3.0214   -0.6385 C.2       1 <0>         0.5762
     22 O3          9.5609    2.5002    0.1793 O.2       1 <0>        -0.5139
     23 C16        11.5051    3.7433   -0.1920 C.ar      1 <0>         0.0457
     24 C17        11.7927    3.8117    1.1605 C.ar      1 <0>        -0.0729
     25 C18        12.9480    4.5014    1.5665 C.ar      1 <0>        -0.0369
     26 C19        13.3115    4.6169    2.9164 C.ar      1 <0>        -0.1013
     27 C20        14.4437    5.2978    3.2501 C.ar      1 <0>        -0.0978
     28 C21        15.2448    5.8809    2.2708 C.ar      1 <0>        -0.1055
     29 C22        14.9214    5.7887    0.9502 C.ar      1 <0>        -0.0920
     30 C23        13.7641    5.0950    0.5677 C.ar      1 <0>        -0.0951
     31 C24        13.3851    4.9691   -0.7815 C.ar      1 <0>         0.1510
     32 N5         12.3007    4.3106   -1.1027 N.ar      1 <0>        -0.4699
     33 H1          0.9490    3.9051   -2.5638 H         1 <0>         0.0661
     34 H2         -0.3341    3.7301   -3.7851 H         1 <0>         0.0617
     35 H3         -0.7003    4.4730   -2.2096 H         1 <0>         0.0735
     36 H4         -0.7410    3.0670   -0.1447 H         1 <0>         0.0735
     37 H5         -0.4036    1.3224   -0.2491 H         1 <0>         0.0618
     38 H6          0.9084    2.4991   -0.4989 H         1 <0>         0.0662
     39 H7         -2.1756    2.0784   -3.4344 H         1 <0>         0.0640
     40 H8         -2.2046    1.0768   -1.9633 H         1 <0>         0.0640
     41 H9         -2.5419    2.8213   -1.8589 H         1 <0>         0.0696
     42 H10         2.3738    1.8813   -2.3906 H         1 <0>         0.1837
     43 H11         3.5009   -1.1579   -4.4413 H         1 <0>         0.4196
     44 H12         5.8072   -0.9262   -4.1447 H         1 <0>         0.4117
     45 H13         5.7920    1.3043   -1.4255 H         1 <0>         0.1451
     46 H14         7.7105    2.6466   -0.6696 H         1 <0>         0.1439
     47 H15         9.8715    1.5398   -4.1897 H         1 <0>         0.1332
     48 H16         7.9562    0.1903   -4.9410 H         1 <0>         0.1322
     49 H17        10.5502    3.4128   -2.5996 H         1 <0>         0.4217
     50 H18        11.1437    3.3458    1.8873 H         1 <0>         0.1542
     51 H19        12.6987    4.1700    3.6852 H         1 <0>         0.1371
     52 H20        14.7241    5.3870    4.2893 H         1 <0>         0.1324
     53 H21        16.1367    6.4153    2.5631 H         1 <0>         0.1320
     54 H22        15.5524    6.2468    0.2029 H         1 <0>         0.1383
     55 H23        13.9933    5.4142   -1.5550 H         1 <0>         0.1724
@<TRIPOS>BOND
     1    1    2 1
     2    1   33 1
     3    1   34 1
     4    1   35 1
     5    2    3 1
     6    2    4 1
     7    2    5 1
     8    3   36 1
     9    3   37 1
    10    3   38 1
    11    4   39 1
    12    4   40 1
    13    4   41 1
    14    5    9 1
    15    5    6 2
    16    6    7 1
    17    6   42 1
    18    7    8 2
    19    7   10 1
    20    8    9 1
    21   10   11 am
    22   10   43 1
    23   11   12 2
    24   11   13 am
    25   13   14 1
    26   13   44 1
    27   14   19 ar
    28   14   15 ar
    29   15   16 ar
    30   15   45 1
    31   16   17 ar
    32   16   46 1
    33   17   18 ar
    34   17   20 1
    35   18   19 ar
    36   18   47 1
    37   19   48 1
    38   20   21 am
    39   20   49 1
    40   21   22 2
    41   21   23 1
    42   23   32 ar
    43   23   24 ar
    44   24   25 ar
    45   24   50 1
    46   25   30 ar
    47   25   26 ar
    48   26   27 ar
    49   26   51 1
    50   27   28 ar
    51   27   52 1
    52   28   29 ar
    53   28   53 1
    54   29   30 ar
    55   29   54 1
    56   30   31 ar
    57   31   32 ar
    58   31   55 1
@<TRIPOS>MOLECULE
CHEMBL488840
   54    57     0     0     0
SMALL
USER_CHARGES

@<TRIPOS>ATOM
      1 C1          2.2316   -2.9793    2.2646 C.3       1 <0>        -0.1170
      2 C2          1.1351   -2.8809    1.2355 C.ar      1 <0>        -0.0634
      3 C3          1.1724   -3.6742    0.1075 C.ar      1 <0>        -0.1264
      4 C4          0.1663   -3.5855   -0.8381 C.ar      1 <0>        -0.1044
      5 C5         -0.8835   -2.7019   -0.6600 C.ar      1 <0>        -0.1254
      6 C6         -0.9332   -1.9023    0.4630 C.ar      1 <0>        -0.0659
      7 C7          0.0759   -1.9907    1.4243 C.ar      1 <0>        -0.0597
      8 C8          0.0262   -1.1429    2.6312 C.2       1 <0>        -0.1271
      9 C9         -1.0407   -1.1843    3.4326 C.2       1 <0>         0.0773
     10 N1         -1.1391   -0.3049    4.5050 N.pl3     1 <0>        -0.4199
     11 C10        -0.2285    0.6524    4.8529 C.2       1 <0>         0.2564
     12 N2         -0.6397    1.2937    5.9081 N.2       1 <0>        -0.4534
     13 C11        -1.8346    0.7934    6.3052 C.ar      1 <0>        -0.0979
     14 C12        -2.1738   -0.2339    5.4078 C.ar      1 <0>         0.3068
     15 N3         -3.3172   -0.8885    5.5775 N.ar      1 <0>        -0.5437
     16 C13        -4.1261   -0.5803    6.5696 C.ar      1 <0>         0.3639
     17 N4         -3.8526    0.3785    7.4352 N.ar      1 <0>        -0.5697
     18 C14        -2.7278    1.0820    7.3507 C.ar      1 <0>         0.4979
     19 N5         -2.4505    2.0869    8.2624 N.pl3     1 <0>        -0.6371
     20 C15        -3.2876    2.2809    9.3647 C.ar      1 <0>         0.1918
     21 C16        -3.9201    1.1958    9.9580 C.ar      1 <0>        -0.1309
     22 C17        -4.7466    1.3910   11.0470 C.ar      1 <0>        -0.0170
     23 C18        -4.9452    2.6651   11.5467 C.ar      1 <0>        -0.7486
     24 C19        -4.3175    3.7476   10.9582 C.ar      1 <0>        -0.0520
     25 C20        -3.4844    3.5586    9.8730 C.ar      1 <0>        -0.1655
     26 P1         -6.0322    2.9170   12.9770 P.3       1 <0>         2.5604
     27 O1         -5.9999    1.7143   13.8390 O.2       1 <0>        -1.0037
     28 C21        -5.4591    4.3623   13.9287 C.3       1 <0>        -0.8113
     29 C22        -7.7374    3.2061   12.4008 C.3       1 <0>        -0.8089
     30 C23        -2.0771   -0.9401    0.6550 C.3       1 <0>        -0.1197
     31 H1          1.9685   -3.7350    3.0048 H         1 <0>         0.0728
     32 H2          3.1647   -3.2590    1.7757 H         1 <0>         0.0693
     33 H3          2.3546   -2.0150    2.7577 H         1 <0>         0.0670
     34 H4          1.9891   -4.3658   -0.0379 H         1 <0>         0.1248
     35 H5          0.2006   -4.2086   -1.7196 H         1 <0>         0.1244
     36 H6         -1.6655   -2.6377   -1.4021 H         1 <0>         0.1246
     37 H7          0.8530   -0.4889    2.8661 H         1 <0>         0.1296
     38 H8         -1.8273   -1.9009    3.2480 H         1 <0>         0.1628
     39 H9          0.6960    0.8477    4.3298 H         1 <0>         0.2277
     40 H10        -5.0480   -1.1321    6.6793 H         1 <0>         0.2121
     41 H11        -1.6753    2.6561    8.1359 H         1 <0>         0.4297
     42 H12        -3.7660    0.2006    9.5678 H         1 <0>         0.1427
     43 H13        -5.2387    0.5477   11.5088 H         1 <0>         0.1477
     44 H14        -4.4750    4.7414   11.3506 H         1 <0>         0.1268
     45 H15        -2.9904    4.4039    9.4170 H         1 <0>         0.1284
     46 H16        -5.4828    5.2480   13.2938 H         1 <0>         0.0882
     47 H17        -6.1122    4.5137   14.7881 H         1 <0>         0.1093
     48 H18        -4.4395    4.1894   14.2732 H         1 <0>         0.1114
     49 H19        -8.0801    2.3419   11.8318 H         1 <0>         0.1109
     50 H20        -8.3906    3.3574   13.2603 H         1 <0>         0.1078
     51 H21        -7.7612    4.0918   11.7660 H         1 <0>         0.0884
     52 H22        -2.8953   -1.4461    1.1674 H         1 <0>         0.0722
     53 H23        -1.7425   -0.0926    1.2532 H         1 <0>         0.0663
     54 H24        -2.4208   -0.5858   -0.3168 H         1 <0>         0.0692
@<TRIPOS>BOND
     1    1    2 1
     2    1   31 1
     3    1   32 1
     4    1   33 1
     5    2    7 ar
     6    2    3 ar
     7    3    4 ar
     8    3   34 1
     9    4    5 ar
    10    4   35 1
    11    5    6 ar
    12    5   36 1
    13    6    7 ar
    14    6   30 1
    15    7    8 1
    16    8    9 2
    17    8   37 1
    18    9   10 1
    19    9   38 1
    20   10   14 1
    21   10   11 1
    22   11   12 2
    23   11   39 1
    24   12   13 1
    25   13   18 ar
    26   13   14 ar
    27   14   15 ar
    28   15   16 ar
    29   16   17 ar
    30   16   40 1
    31   17   18 ar
    32   18   19 1
    33   19   20 1
    34   19   41 1
    35   20   25 ar
    36   20   21 ar
    37   21   22 ar
    38   21   42 1
    39   22   23 ar
    40   22   43 1
    41   23   24 ar
    42   23   26 1
    43   24   25 ar
    44   24   44 1
    45   25   45 1
    46   26   27 2
    47   26   28 1
    48   26   29 1
    49   28   46 1
    50   28   47 1
    51   28   48 1
    52   29   49 1
    53   29   50 1
    54   29   51 1
    55   30   52 1
    56   30   53 1
    57   30   54 1
@<TRIPOS>MOLECULE
CHEMBL391691
   43    46     0     0     0
SMALL
USER_CHARGES

@<TRIPOS>ATOM
      1 C1         -0.0468    3.3060   -1.9075 C.3       1 <0>        -0.6481
      2 S1          0.0583    1.7467   -0.9865 S.o2      1 <0>         2.4950
      3 O1          0.9395    1.8897    0.1190 O.2       1 <0>        -0.9324
      4 O2         -1.2387    1.1929   -0.8122 O.2       1 <0>        -0.9248
      5 C2          0.8805    0.6321   -2.0757 C.ar      1 <0>        -0.6545
      6 C3          0.1455   -0.1388   -2.9586 C.ar      1 <0>         0.0031
      7 C4          0.7840   -1.0156   -3.8169 C.ar      1 <0>        -0.1254
      8 C5          2.1597   -1.1261   -3.7969 C.ar      1 <0>        -0.0427
      9 C6          2.9055   -0.3520   -2.9095 C.ar      1 <0>        -0.0974
     10 C7          2.2566    0.5340   -2.0503 C.ar      1 <0>         0.0000
     11 C8          4.3833   -0.4661   -2.8832 C.ar      1 <0>        -0.0092
     12 C9          5.1854    0.6692   -2.9369 C.ar      1 <0>         0.1304
     13 N1          6.5024    0.5525   -2.9126 N.ar      1 <0>        -0.4926
     14 C10         7.1256   -0.6052   -2.8385 C.ar      1 <0>         0.4993
     15 C11         6.4042   -1.8260   -2.7788 C.ar      1 <0>        -0.1342
     16 C12         5.0003   -1.7129   -2.7982 C.ar      1 <0>        -0.0546
     17 S2          4.4354   -3.3890   -2.7022 S.3       1 <0>         0.2209
     18 C13         6.0146   -4.2134   -2.6308 C.2       1 <0>        -0.1230
     19 C14         6.9049   -3.1955   -2.6943 C.2       1 <0>        -0.0527
     20 C15         8.3622   -3.4649   -2.6600 C.ar      1 <0>        -0.0750
     21 C16         9.1566   -2.8892   -1.6691 C.ar      1 <0>        -0.0772
     22 C17        10.5126   -3.1425   -1.6407 C.ar      1 <0>        -0.1406
     23 C18        11.0857   -3.9674   -2.5946 C.ar      1 <0>         0.1346
     24 C19        10.3006   -4.5423   -3.5820 C.ar      1 <0>        -0.0748
     25 C20         8.9416   -4.2991   -3.6148 C.ar      1 <0>        -0.0573
     26 Cl1        11.0254   -5.5751   -4.7743 Cl        1 <0>        -0.0208
     27 F1         12.4140   -4.2121   -2.5629 F         1 <0>        -0.1115
     28 N2          8.5124   -0.6321   -2.8189 N.pl3     1 <0>        -0.8272
     29 H1          0.9574    3.6506   -2.1543 H         1 <0>         0.1309
     30 H2         -0.6127    3.1483   -2.8256 H         1 <0>         0.1349
     31 H3         -0.5483    4.0561   -1.2959 H         1 <0>         0.1394
     32 H4         -0.9312   -0.0559   -2.9775 H         1 <0>         0.1544
     33 H5          0.2051   -1.6151   -4.5037 H         1 <0>         0.1483
     34 H6          2.6572   -1.8113   -4.4672 H         1 <0>         0.1362
     35 H7          2.8296    1.1395   -1.3638 H         1 <0>         0.1492
     36 H8          4.7319    1.6473   -2.9989 H         1 <0>         0.2165
     37 H9          6.2136   -5.2727   -2.5629 H         1 <0>         0.2165
     38 H10         8.7111   -2.2456   -0.9250 H         1 <0>         0.1448
     39 H11        11.1283   -2.6965   -0.8736 H         1 <0>         0.1584
     40 H12         8.3294   -4.7510   -4.3812 H         1 <0>         0.1540
     41 H13         9.0069    0.1198   -2.4568 H         1 <0>         0.4242
     42 H14         8.9876   -1.4026   -3.1672 H         1 <0>         0.4378
     43 H15         7.0368    1.3610   -2.9517 H         1 <0>         0.4473
@<TRIPOS>BOND
     1    1    2 1
     2    1   29 1
     3    1   30 1
     4    1   31 1
     5    2    3 2
     6    2    4 2
     7    2    5 1
     8    5   10 ar
     9    5    6 ar
    10    6    7 ar
    11    6   32 1
    12    7    8 ar
    13    7   33 1
    14    8    9 ar
    15    8   34 1
    16    9   10 ar
    17    9   11 1
    18   10   35 1
    19   11   16 ar
    20   11   12 ar
    21   12   13 ar
    22   12   36 1
    23   13   14 ar
    24   13   43 1
    25   14   15 ar
    26   14   28 1
    27   15   19 1
    28   15   16 ar
    29   16   17 1
    30   17   18 1
    31   18   19 2
    32   18   37 1
    33   19   20 1
    34   20   25 ar
    35   20   21 ar
    36   21   22 ar
    37   21   38 1
    38   22   23 ar
    39   22   39 1
    40   23   24 ar
    41   23   27 1
    42   24   25 ar
    43   24   26 1
    44   25   40 1
    45   28   41 1
    46   28   42 1
@<TRIPOS>MOLECULE
CHEMBL391691__1
   42    45     0     0     0
SMALL
USER_CHARGES

@<TRIPOS>ATOM
      1 C1         -0.0449    3.2997   -1.9024 C.3       1 <0>        -0.6502
      2 S1          0.0587    1.7401   -0.9819 S.o2      1 <0>         2.4980
      3 O1          0.9395    1.8821    0.1241 O.2       1 <0>        -0.9351
      4 O2         -1.2387    1.1871   -0.8084 O.2       1 <0>        -0.9354
      5 C2          0.8807    0.6253   -2.0710 C.ar      1 <0>        -0.6546
      6 C3          0.1455   -0.1449   -2.9545 C.ar      1 <0>        -0.0213
      7 C4          0.7839   -1.0219   -3.8127 C.ar      1 <0>        -0.1310
      8 C5          2.1594   -1.1334   -3.7922 C.ar      1 <0>        -0.0532
      9 C6          2.9054   -0.3600   -2.9042 C.ar      1 <0>        -0.0530
     10 C7          2.2567    0.5262   -2.0451 C.ar      1 <0>        -0.0119
     11 C8          4.3831   -0.4752   -2.8772 C.ar      1 <0>        -0.1154
     12 C9          5.1860    0.6596   -2.9303 C.ar      1 <0>         0.1839
     13 N1          6.5029    0.5420   -2.9054 N.ar      1 <0>        -0.5403
     14 C10         7.1253   -0.6162   -2.8314 C.ar      1 <0>         0.4610
     15 C11         6.4031   -1.8365   -2.7724 C.ar      1 <0>        -0.1804
     16 C12         4.9992   -1.7224   -2.7924 C.ar      1 <0>        -0.0408
     17 S2          4.4331   -3.3981   -2.6971 S.3       1 <0>         0.0857
     18 C13         6.0117   -4.2236   -2.6252 C.2       1 <0>        -0.1527
     19 C14         6.9028   -3.2063   -2.6880 C.2       1 <0>        -0.0506
     20 C15         8.3598   -3.4767   -2.6531 C.ar      1 <0>        -0.0470
     21 C16         9.1542   -2.9018   -1.6617 C.ar      1 <0>        -0.0633
     22 C17        10.5100   -3.1561   -1.6327 C.ar      1 <0>        -0.1436
     23 C18        11.0830   -3.9811   -2.5867 C.ar      1 <0>         0.1188
     24 C19        10.2979   -4.5552   -3.5746 C.ar      1 <0>        -0.0754
     25 C20         8.9391   -4.3110   -3.6079 C.ar      1 <0>        -0.0658
     26 Cl1        11.0226   -5.5881   -4.7669 Cl        1 <0>        -0.0393
     27 F1         12.4111   -4.2267   -2.5544 F         1 <0>        -0.1213
     28 N2          8.5120   -0.6439   -2.8111 N.pl3     1 <0>        -0.8510
     29 H1          0.9597    3.6437   -2.1487 H         1 <0>         0.1324
     30 H2         -0.6105    3.1427   -2.8209 H         1 <0>         0.1324
     31 H3         -0.5461    4.0500   -1.2909 H         1 <0>         0.1342
     32 H4         -0.9311   -0.0613   -2.9739 H         1 <0>         0.1446
     33 H5          0.2048   -1.6208   -4.5000 H         1 <0>         0.1377
     34 H6          2.6568   -1.8187   -4.4625 H         1 <0>         0.1312
     35 H7          2.8298    1.1311   -1.3581 H         1 <0>         0.1451
     36 H8          4.7332    1.6381   -2.9922 H         1 <0>         0.1708
     37 H9          6.2100   -5.2831   -2.5575 H         1 <0>         0.1955
     38 H10         8.7088   -2.2581   -0.9176 H         1 <0>         0.1451
     39 H11        11.1256   -2.7107   -0.8652 H         1 <0>         0.1522
     40 H12         8.3270   -4.7623   -4.3748 H         1 <0>         0.1482
     41 H13         9.0069    0.1076   -2.4488 H         1 <0>         0.4065
     42 H14         8.9868   -1.4148   -3.1592 H         1 <0>         0.4091
@<TRIPOS>BOND
     1    1    2 1
     2    1   29 1
     3    1   30 1
     4    1   31 1
     5    2    3 2
     6    2    4 2
     7    2    5 1
     8    5   10 ar
     9    5    6 ar
    10    6    7 ar
    11    6   32 1
    12    7    8 ar
    13    7   33 1
    14    8    9 ar
    15    8   34 1
    16    9   10 ar
    17    9   11 1
    18   10   35 1
    19   11   16 ar
    20   11   12 ar
    21   12   13 ar
    22   12   36 1
    23   13   14 ar
    24   14   15 ar
    25   14   28 1
    26   15   19 1
    27   15   16 ar
    28   16   17 1
    29   17   18 1
    30   18   19 2
    31   18   37 1
    32   19   20 1
    33   20   25 ar
    34   20   21 ar
    35   21   22 ar
    36   21   38 1
    37   22   23 ar
    38   22   39 1
    39   23   24 ar
    40   23   27 1
    41   24   25 ar
    42   24   26 1
    43   25   40 1
    44   28   41 1
    45   28   42 1
@<TRIPOS>MOLECULE
CHEMBL477772
   55    58     0     0     0
SMALL
USER_CHARGES

@<TRIPOS>ATOM
      1 C1          4.8550    0.0644   -0.1564 C.3       1 <0>        -0.1869
      2 C2          4.1130   -1.2471   -0.1373 C.ar      1 <0>         0.0344
      3 C3          3.0199   -1.4335   -0.9639 C.ar      1 <0>        -0.1029
      4 C4          2.3377   -2.6340   -0.9488 C.ar      1 <0>        -0.1086
      5 C5          2.7505   -3.6551   -0.1021 C.ar      1 <0>         0.0793
      6 C6          3.8485   -3.4646    0.7266 C.ar      1 <0>        -0.0079
      7 C7          4.5299   -2.2633    0.7025 C.ar      1 <0>        -0.6503
      8 S1          5.9278   -2.0233    1.7479 S.o2      1 <0>         2.7023
      9 O1          5.7339   -0.7789    2.4061 O.2       1 <0>        -0.9435
     10 O2          6.1174   -3.2393    2.4581 O.2       1 <0>        -0.9530
     11 N1          7.2479   -1.8383    0.7653 N.pl3     1 <0>        -1.2455
     12 N2          2.0618   -4.8717   -0.0840 N.pl3     1 <0>        -0.6161
     13 C8          1.6506   -5.4525   -1.2725 C.ar      1 <0>         0.6554
     14 N3          2.0291   -4.9109   -2.4210 N.ar      1 <0>        -0.5769
     15 C9          1.6556   -5.4374   -3.5780 C.ar      1 <0>         0.2082
     16 C10         0.8608   -6.5673   -3.5812 C.ar      1 <0>        -0.2605
     17 C11         0.4781   -7.1160   -2.3554 C.ar      1 <0>         0.5154
     18 N4          0.8935   -6.5384   -1.2323 N.ar      1 <0>        -0.5510
     19 N5         -0.3194   -8.2490   -2.3102 N.pl3     1 <0>        -0.5011
     20 C12        -0.9543   -8.7470   -3.5329 C.3       1 <0>         0.0690
     21 C13        -0.5176   -8.9162   -1.0982 C.ar      1 <0>         0.1506
     22 C14        -1.6153   -8.5676   -0.2972 C.ar      1 <0>        -0.1610
     23 C15        -1.8550   -9.1812    0.8869 C.ar      1 <0>        -0.0082
     24 C16        -0.9846  -10.1987    1.3349 C.ar      1 <0>        -0.2079
     25 C17        -0.9297  -11.0085    2.4539 C.2       1 <0>         0.1217
     26 N6          0.1424  -11.8034    2.3353 N.pl3     1 <0>        -0.3103
     27 N7          0.8101  -11.5292    1.1362 N.2       1 <0>        -0.2974
     28 C18         0.1676  -10.5678    0.4977 C.ar      1 <0>         0.1038
     29 C19         0.3572   -9.8931   -0.7266 C.ar      1 <0>        -0.0735
     30 C20         0.5548  -12.8107    3.3159 C.3       1 <0>         0.0805
     31 C21        -1.9031  -10.9985    3.6043 C.3       1 <0>        -0.1011
     32 H1          5.6496    0.0215   -0.9013 H         1 <0>         0.0977
     33 H2          4.1642    0.8691   -0.4081 H         1 <0>         0.0977
     34 H3          5.2880    0.2513    0.8263 H         1 <0>         0.1151
     35 H4          2.6992   -0.6391   -1.6216 H         1 <0>         0.1546
     36 H5          1.4840   -2.7788   -1.5942 H         1 <0>         0.1384
     37 H6          4.1718   -4.2563    1.3862 H         1 <0>         0.1631
     38 H7          7.1442   -1.8748   -0.1984 H         1 <0>         0.4166
     39 H8          8.1250   -1.6933    1.1536 H         1 <0>         0.4287
     40 H9          1.8719   -5.3090    0.7607 H         1 <0>         0.4510
     41 H10         1.9690   -4.9879   -4.5086 H         1 <0>         0.2180
     42 H11         0.5423   -7.0159   -4.5105 H         1 <0>         0.1895
     43 H12        -0.2892   -9.4570   -4.0245 H         1 <0>         0.0864
     44 H13        -1.8916   -9.2426   -3.2797 H         1 <0>         0.1025
     45 H14        -1.1546   -7.9121   -4.2044 H         1 <0>         0.0922
     46 H15        -2.2859   -7.7904   -0.6326 H         1 <0>         0.1248
     47 H16        -2.7070   -8.8933    1.4849 H         1 <0>         0.1331
     48 H17         1.1920  -10.1463   -1.3633 H         1 <0>         0.1303
     49 H18         0.0824  -13.7638    3.0783 H         1 <0>         0.0924
     50 H19         1.6384  -12.9247    3.2859 H         1 <0>         0.1019
     51 H20         0.2504  -12.4929    4.3131 H         1 <0>         0.0998
     52 H21        -2.7129  -11.6991    3.4011 H         1 <0>         0.0934
     53 H22        -1.3881  -11.2936    4.5186 H         1 <0>         0.0813
     54 H23        -2.3122   -9.9955    3.7254 H         1 <0>         0.0937
     55 H24         2.5872   -4.1176   -2.4147 H         1 <0>         0.4405
@<TRIPOS>BOND
     1    1    2 1
     2    1   32 1
     3    1   33 1
     4    1   34 1
     5    2    7 ar
     6    2    3 ar
     7    3    4 ar
     8    3   35 1
     9    4    5 ar
    10    4   36 1
    11    5    6 ar
    12    5   12 1
    13    6    7 ar
    14    6   37 1
    15    7    8 1
    16    8    9 2
    17    8   10 2
    18    8   11 1
    19   11   38 1
    20   11   39 1
    21   12   13 1
    22   12   40 1
    23   13   18 ar
    24   13   14 ar
    25   14   15 ar
    26   14   55 1
    27   15   16 ar
    28   15   41 1
    29   16   17 ar
    30   16   42 1
    31   17   18 ar
    32   17   19 1
    33   19   20 1
    34   19   21 1
    35   20   43 1
    36   20   44 1
    37   20   45 1
    38   21   29 ar
    39   21   22 ar
    40   22   23 ar
    41   22   46 1
    42   23   24 ar
    43   23   47 1
    44   24   28 ar
    45   24   25 2
    46   25   26 1
    47   25   31 1
    48   26   27 1
    49   26   30 1
    50   27   28 2
    51   28   29 ar
    52   29   48 1
    53   30   49 1
    54   30   50 1
    55   30   51 1
    56   31   52 1
    57   31   53 1
    58   31   54 1
@<TRIPOS>MOLECULE
CHEMBL491429
   41    44     0     0     0
SMALL
USER_CHARGES

@<TRIPOS>ATOM
      1 C1          2.1428    1.4728   -0.4825 C.ar      1 <0>        -0.0885
      2 C2          1.0994    2.1197    0.1546 C.ar      1 <0>        -0.0908
      3 C3          0.0900    1.3878    0.7523 C.ar      1 <0>        -0.1493
      4 C4          0.1208    0.0074    0.7152 C.ar      1 <0>        -0.0968
      5 C5          1.1670   -0.6454    0.0763 C.ar      1 <0>         0.1545
      6 C6          2.1795    0.0931   -0.5236 C.ar      1 <0>        -0.1167
      7 N1          1.2015   -2.0420    0.0373 N.pl3     1 <0>        -0.6216
      8 C7          0.0231   -2.7687    0.1407 C.2       1 <0>         0.3727
      9 C8         -0.0952   -4.2323    0.2306 C.ar      1 <0>        -0.1989
     10 C9          0.8340   -5.2736    0.2409 C.ar      1 <0>         0.0026
     11 C10         0.4059   -6.5802    0.3383 C.ar      1 <0>        -0.1416
     12 C11        -0.9447   -6.8732    0.4262 C.ar      1 <0>         0.0582
     13 C12        -1.8909   -5.8476    0.4173 C.ar      1 <0>        -0.1393
     14 C13        -1.4658   -4.5134    0.3194 C.ar      1 <0>         0.1494
     15 O1         -2.1196   -3.3371    0.2869 O.3       1 <0>        -0.0751
     16 N2         -1.1862   -2.2810    0.1819 N.2       1 <0>        -0.3222
     17 C14        -3.3279   -6.1633    0.5102 C.2       1 <0>         0.5742
     18 O2         -3.8658   -6.2339    1.5986 O.2       1 <0>        -0.4856
     19 N3         -4.0454   -6.3737   -0.6111 N.am      1 <0>        -0.6481
     20 C15        -5.4303   -6.5558   -0.5315 C.ar      1 <0>         0.0429
     21 C16        -6.1619   -6.0200    0.5252 C.ar      1 <0>         0.1457
     22 N4         -7.4696   -6.2142    0.5637 N.ar      1 <0>        -0.4958
     23 C17        -8.0794   -6.9033   -0.3798 C.ar      1 <0>         0.2748
     24 N5         -7.4228   -7.4267   -1.3956 N.ar      1 <0>        -0.4976
     25 C18        -6.1141   -7.2727   -1.5101 C.ar      1 <0>         0.1276
     26 Cl1        -1.4636   -8.5254    0.5477 Cl        1 <0>        -0.0206
     27 C19        -1.0448    2.0970    1.4454 C.3       1 <0>         0.5081
     28 F1         -0.8570    3.4802    1.3514 F         1 <0>        -0.1748
     29 F2         -2.2546    1.7481    0.8355 F         1 <0>        -0.1709
     30 F3         -1.0762    1.7211    2.7926 F         1 <0>        -0.1744
     31 H1          2.9273    2.0475   -0.9522 H         1 <0>         0.1445
     32 H2          1.0733    3.1989    0.1857 H         1 <0>         0.1439
     33 H3         -0.6676   -0.5637    1.1829 H         1 <0>         0.1510
     34 H4          2.9945   -0.4115   -1.0213 H         1 <0>         0.1399
     35 H5          2.0488   -2.5037   -0.0620 H         1 <0>         0.4315
     36 H6          1.8895   -5.0555    0.1720 H         1 <0>         0.1520
     37 H7          1.1295   -7.3819    0.3457 H         1 <0>         0.1596
     38 H8         -3.6017   -6.3989   -1.4733 H         1 <0>         0.4188
     39 H9         -5.6687   -5.4545    1.3020 H         1 <0>         0.1837
     40 H10        -9.1485   -7.0436   -0.3186 H         1 <0>         0.2010
     41 H11        -5.5831   -7.7005   -2.3476 H         1 <0>         0.1719
@<TRIPOS>BOND
     1    1    6 ar
     2    1    2 ar
     3    1   31 1
     4    2    3 ar
     5    2   32 1
     6    3    4 ar
     7    3   27 1
     8    4    5 ar
     9    4   33 1
    10    5    6 ar
    11    5    7 1
    12    6   34 1
    13    7    8 1
    14    7   35 1
    15    8   16 2
    16    8    9 1
    17    9   14 ar
    18    9   10 ar
    19   10   11 ar
    20   10   36 1
    21   11   12 ar
    22   11   37 1
    23   12   13 ar
    24   12   26 1
    25   13   14 ar
    26   13   17 1
    27   14   15 1
    28   15   16 1
    29   17   18 2
    30   17   19 am
    31   19   20 1
    32   19   38 1
    33   20   25 ar
    34   20   21 ar
    35   21   22 ar
    36   21   39 1
    37   22   23 ar
    38   23   24 ar
    39   23   40 1
    40   24   25 ar
    41   25   41 1
    42   27   28 1
    43   27   29 1
    44   27   30 1
@<TRIPOS>MOLECULE
CHEMBL270463
   41    44     0     0     0
SMALL
USER_CHARGES

@<TRIPOS>ATOM
      1 C1         -0.5781    0.9892    0.9492 C.3       1 <0>        -0.0870
      2 C2         -0.3532   -0.4784    0.6911 C.2       1 <0>         0.1064
      3 C3         -0.3524   -1.0993   -0.5644 C.2       1 <0>        -0.2543
      4 C4         -0.1137   -2.4299   -0.3758 C.2       1 <0>         0.1429
      5 O1          0.0297   -2.6351    0.9479 O.3       1 <0>        -0.0672
      6 N1         -0.1204   -1.3865    1.5985 N.2       1 <0>        -0.3161
      7 C5         -0.0291   -3.4551   -1.4280 C.2       1 <0>        -0.1438
      8 C6          1.1799   -4.1096   -1.6860 C.2       1 <0>         0.1037
      9 C7          1.2076   -5.1260   -2.7494 C.ar      1 <0>        -0.1124
     10 C8          2.3900   -5.8103   -3.0476 C.ar      1 <0>        -0.0374
     11 C9          2.3967   -6.7587   -4.0461 C.ar      1 <0>        -0.0674
     12 C10         1.2357   -7.0370   -4.7562 C.ar      1 <0>        -0.0470
     13 C11         0.0636   -6.3706   -4.4739 C.ar      1 <0>        -0.1498
     14 C12         0.0335   -5.4081   -3.4682 C.ar      1 <0>         0.1993
     15 N2         -1.1409   -4.7398   -3.1832 N.am      1 <0>        -0.6262
     16 H1         -1.9391   -4.9509   -3.6923 H         1 <0>         0.4233
     17 C13        -1.2099   -3.8095   -2.2163 C.2       1 <0>         0.5571
     18 O2         -2.2693   -3.2495   -1.9962 O.2       1 <0>        -0.5119
     19 Cl1         3.8629   -7.6098   -4.4195 Cl        1 <0>        -0.0540
     20 C14         2.3900   -3.7904   -0.9159 C.2       1 <0>        -0.1191
     21 C15         2.9151   -2.5899   -1.0539 C.2       1 <0>        -0.1009
     22 C16         4.1523   -2.1331   -0.3372 C.3       1 <0>        -0.0915
     23 C17         4.4462   -3.0564    0.8469 C.3       1 <0>        -0.1238
     24 C18         4.4008   -4.5084    0.3553 C.3       1 <0>        -0.1181
     25 C19         2.9534   -4.8485   -0.0127 C.3       1 <0>        -0.0790
     26 H2          0.3772    1.5133    0.9233 H         1 <0>         0.0900
     27 H3         -1.2368    1.3963    0.1820 H         1 <0>         0.0884
     28 H4         -1.0376    1.1196    1.9290 H         1 <0>         0.0829
     29 H5         -0.5128   -0.6112   -1.5144 H         1 <0>         0.1582
     30 H6          3.2942   -5.5957   -2.4974 H         1 <0>         0.1511
     31 H7          1.2522   -7.7826   -5.5373 H         1 <0>         0.1479
     32 H8         -0.8329   -6.5951   -5.0328 H         1 <0>         0.1489
     33 H9          2.4275   -1.8947   -1.7213 H         1 <0>         0.1086
     34 H10         4.9963   -2.1499   -1.0267 H         1 <0>         0.0830
     35 H11         4.0049   -1.1159    0.0257 H         1 <0>         0.0783
     36 H12         5.4361   -2.8359    1.2463 H         1 <0>         0.0697
     37 H13         3.6942   -2.9086    1.6220 H         1 <0>         0.0682
     38 H14         5.0405   -4.6187   -0.5203 H         1 <0>         0.0677
     39 H15         4.7421   -5.1742    1.1479 H         1 <0>         0.0723
     40 H16         2.3509   -4.9083    0.8936 H         1 <0>         0.0829
     41 H17         2.9293   -5.8107   -0.5244 H         1 <0>         0.0758
@<TRIPOS>BOND
     1    1    2 1
     2    1   26 1
     3    1   27 1
     4    1   28 1
     5    2    6 2
     6    2    3 1
     7    3    4 2
     8    3   29 1
     9    4    5 1
    10    4    7 1
    11    5    6 1
    12    7   17 1
    13    7    8 2
    14    8    9 1
    15    8   20 1
    16    9   14 ar
    17    9   10 ar
    18   10   11 ar
    19   10   30 1
    20   11   12 ar
    21   11   19 1
    22   12   13 ar
    23   12   31 1
    24   13   14 ar
    25   13   32 1
    26   14   15 1
    27   15   16 1
    28   15   17 am
    29   17   18 2
    30   20   25 1
    31   20   21 2
    32   21   22 1
    33   21   33 1
    34   22   23 1
    35   22   34 1
    36   22   35 1
    37   23   24 1
    38   23   36 1
    39   23   37 1
    40   24   25 1
    41   24   38 1
    42   24   39 1
    43   25   40 1
    44   25   41 1
@<TRIPOS>MOLECULE
CHEMBL270783
   43    46     0     0     0
SMALL
USER_CHARGES

@<TRIPOS>ATOM
      1 C1          0.2509    1.6516   -0.4001 C.3       1 <0>        -0.0873
      2 C2          0.1940    0.1486   -0.3052 C.2       1 <0>         0.1065
      3 C3          0.1743   -0.7418   -1.3872 C.2       1 <0>        -0.2502
      4 C4          0.1217   -2.0091   -0.8882 C.2       1 <0>         0.1363
      5 O1          0.1088   -1.9191    0.4554 O.3       1 <0>        -0.0720
      6 N1          0.1604   -0.5462    0.7982 N.2       1 <0>        -0.3158
      7 C5          0.0850   -3.2545   -1.6775 C.2       1 <0>        -0.1486
      8 C6          1.1283   -4.1550   -1.6090 C.2       1 <0>         0.0702
      9 C7          1.0654   -5.3431   -2.3787 C.ar      1 <0>        -0.1152
     10 C8          2.1122   -6.2757   -2.3272 C.ar      1 <0>        -0.0541
     11 C9          2.0427   -7.4181   -3.0721 C.ar      1 <0>        -0.0680
     12 C10         0.9417   -7.6661   -3.8830 C.ar      1 <0>        -0.0441
     13 C11        -0.0980   -6.7648   -3.9495 C.ar      1 <0>        -0.1511
     14 C12        -0.0505   -5.5925   -3.1993 C.ar      1 <0>         0.2032
     15 N2         -1.0904   -4.6878   -3.2632 N.am      1 <0>        -0.6241
     16 H1         -1.8528   -4.8745   -3.8330 H         1 <0>         0.4240
     17 C13        -1.0642   -3.5526   -2.5399 C.2       1 <0>         0.5551
     18 O2         -1.9940   -2.7687   -2.6057 O.2       1 <0>        -0.5113
     19 Cl1         3.3403   -8.5695   -3.0061 Cl        1 <0>        -0.0552
     20 C14         2.3190   -3.8783   -0.7276 C.3       1 <0>        -0.0651
     21 C15         3.5859   -3.8250   -1.5839 C.3       1 <0>        -0.1221
     22 C16         4.7948   -3.5441   -0.6891 C.3       1 <0>        -0.1193
     23 C17         4.9289   -4.6579    0.3513 C.3       1 <0>        -0.1236
     24 C18         3.6620   -4.7112    1.2076 C.3       1 <0>        -0.1195
     25 C19         2.4532   -4.9921    0.3128 C.3       1 <0>        -0.1211
     26 H2          1.2915    1.9755   -0.4155 H         1 <0>         0.0908
     27 H3         -0.2445    1.9768   -1.3150 H         1 <0>         0.0890
     28 H4         -0.2533    2.0894    0.4614 H         1 <0>         0.0834
     29 H5          0.1965   -0.4713   -2.4326 H         1 <0>         0.1595
     30 H6          2.9716   -6.0904   -1.6998 H         1 <0>         0.1658
     31 H7          0.9009   -8.5738   -4.4668 H         1 <0>         0.1480
     32 H8         -0.9489   -6.9670   -4.5832 H         1 <0>         0.1490
     33 H9          2.1821   -2.9228   -0.2214 H         1 <0>         0.0941
     34 H10         3.7228   -4.7805   -2.0901 H         1 <0>         0.0761
     35 H11         3.4903   -3.0315   -2.3251 H         1 <0>         0.0695
     36 H12         5.6973   -3.5061   -1.2991 H         1 <0>         0.0691
     37 H13         4.6579   -2.5886   -0.1828 H         1 <0>         0.0648
     38 H14         5.0658   -5.6134   -0.1549 H         1 <0>         0.0637
     39 H15         5.7901   -4.4578    0.9888 H         1 <0>         0.0665
     40 H16         3.7576   -5.5047    1.9488 H         1 <0>         0.0694
     41 H17         3.5252   -3.7557    1.7138 H         1 <0>         0.0664
     42 H18         1.5506   -5.0301    0.9228 H         1 <0>         0.0720
     43 H19         2.5900   -5.9476   -0.1935 H         1 <0>         0.0750
@<TRIPOS>BOND
     1    1    2 1
     2    1   26 1
     3    1   27 1
     4    1   28 1
     5    2    6 2
     6    2    3 1
     7    3    4 2
     8    3   29 1
     9    4    5 1
    10    4    7 1
    11    5    6 1
    12    7   17 1
    13    7    8 2
    14    8    9 1
    15    8   20 1
    16    9   14 ar
    17    9   10 ar
    18   10   11 ar
    19   10   30 1
    20   11   12 ar
    21   11   19 1
    22   12   13 ar
    23   12   31 1
    24   13   14 ar
    25   13   32 1
    26   14   15 1
    27   15   16 1
    28   15   17 am
    29   17   18 2
    30   20   25 1
    31   20   21 1
    32   20   33 1
    33   21   22 1
    34   21   34 1
    35   21   35 1
    36   22   23 1
    37   22   36 1
    38   22   37 1
    39   23   24 1
    40   23   38 1
    41   23   39 1
    42   24   25 1
    43   24   40 1
    44   24   41 1
    45   25   42 1
    46   25   43 1
@<TRIPOS>MOLECULE
CHEMBL271461
   64    69     0     0     0
SMALL
USER_CHARGES

@<TRIPOS>ATOM
      1 C1          1.0621   -0.6197   -0.5840 C.ar      1 <0>        -0.0596
      2 C2          2.2122    0.1439   -0.6013 C.ar      1 <0>        -0.1627
      3 C3          2.2267    1.3914    0.0089 C.ar      1 <0>         0.1825
      4 C4          1.0843    1.8706    0.6366 C.ar      1 <0>        -0.1638
      5 C5         -0.0658    1.1068    0.6539 C.ar      1 <0>        -0.0947
      6 C6         -0.0802   -0.1406    0.0437 C.ar      1 <0>         0.1268
      7 N1         -1.2471   -0.9154    0.0613 N.pl3     1 <0>        -0.6265
      8 C7         -1.1612   -2.2909    0.1469 C.ar      1 <0>         0.6097
      9 N2          0.0315   -2.8463    0.3333 N.ar      1 <0>        -0.5730
     10 C8          0.1658   -4.1579    0.4219 C.ar      1 <0>         0.2824
     11 C9         -0.9774   -4.9520    0.3150 C.ar      1 <0>        -0.3352
     12 C10        -0.9191   -6.4182    0.4025 C.2       1 <0>         0.4542
     13 O1          0.1360   -7.0041    0.5730 O.2       1 <0>        -0.4789
     14 C11        -2.1929   -7.1483    0.2754 C.2       1 <0>        -0.3217
     15 C12        -3.3545   -6.4325    0.0842 C.2       1 <0>         0.2521
     16 N3         -3.3666   -5.0901    0.0095 N.pl3     1 <0>        -0.4229
     17 C13        -2.2274   -4.3316    0.1175 C.ar      1 <0>         0.4678
     18 N4         -2.2713   -3.0058    0.0454 N.ar      1 <0>        -0.5835
     19 C14        -4.5906   -4.4393   -0.1868 C.ar      1 <0>         0.0900
     20 C15        -5.5739   -4.4945    0.7926 C.ar      1 <0>        -0.1006
     21 C16        -6.7780   -3.8509    0.5941 C.ar      1 <0>        -0.0938
     22 C17        -7.0114   -3.1499   -0.5782 C.ar      1 <0>        -0.0736
     23 C18        -6.0344   -3.0933   -1.5552 C.ar      1 <0>        -0.0859
     24 C19        -4.8231   -3.7325   -1.3578 C.ar      1 <0>        -0.0673
     25 C20        -6.5303   -2.2743   -2.7278 C.3       1 <0>        -0.0826
     26 C21        -8.0623   -2.2056   -2.5534 C.3       1 <0>        -0.1217
     27 C22        -8.2300   -2.3725   -1.0282 C.3       1 <0>        -0.0878
     28 C23        -2.2236   -8.6175    0.3509 C.2       1 <0>         0.5894
     29 O2         -3.2889   -9.2048    0.3432 O.2       1 <0>        -0.5553
     30 N5         -1.0715   -9.3125    0.4285 N.am      1 <0>        -0.8428
     31 N6          3.3925    2.1652   -0.0082 N.pl3     1 <0>        -0.6457
     32 C24         3.3996    3.5343    0.5301 C.3       1 <0>         0.0981
     33 C25         4.5775    3.6684    1.5008 C.3       1 <0>        -0.0240
     34 N7          5.8186    3.2785    0.8198 N.4       1 <0>        -0.5038
     35 C26         5.7649    1.8565    0.4578 C.3       1 <0>        -0.0234
     36 C27         4.6472    1.6306   -0.5595 C.3       1 <0>         0.0979
     37 H1          1.0495   -1.5879   -1.0625 H         1 <0>         0.1391
     38 H2          3.1007   -0.2289   -1.0892 H         1 <0>         0.1272
     39 H3          1.0956    2.8405    1.1115 H         1 <0>         0.1276
     40 H4         -0.9541    1.4793    1.1423 H         1 <0>         0.1317
     41 H5         -2.1154   -0.4857    0.0133 H         1 <0>         0.4276
     42 H6          1.1373   -4.6050    0.5731 H         1 <0>         0.1929
     43 H7         -4.2876   -6.9682   -0.0092 H         1 <0>         0.1909
     44 H8         -5.3964   -5.0403    1.7075 H         1 <0>         0.1338
     45 H9         -7.5424   -3.8939    1.3559 H         1 <0>         0.1347
     46 H10        -4.0583   -3.6844   -2.1189 H         1 <0>         0.1231
     47 H11        -6.1011   -1.2728   -2.6981 H         1 <0>         0.0832
     48 H12        -6.2783   -2.7670   -3.6668 H         1 <0>         0.0785
     49 H13        -8.4468   -1.2401   -2.8821 H         1 <0>         0.0814
     50 H14        -8.5501   -3.0205   -3.0882 H         1 <0>         0.0767
     51 H15        -9.1388   -2.9321   -0.8067 H         1 <0>         0.0823
     52 H16        -8.2574   -1.3974   -0.5418 H         1 <0>         0.0861
     53 H17        -0.2264   -8.8432    0.5083 H         1 <0>         0.4126
     54 H18        -1.0875  -10.2821    0.4046 H         1 <0>         0.4031
     55 H19         3.5141    4.2480   -0.2857 H         1 <0>         0.0882
     56 H20         2.4657    3.7247    1.0589 H         1 <0>         0.1263
     57 H21         4.6563    4.7026    1.8360 H         1 <0>         0.1433
     58 H22         4.4154    3.0188    2.3610 H         1 <0>         0.1345
     59 H23         6.7187    1.5555    0.0244 H         1 <0>         0.1441
     60 H24         5.5669    1.2617    1.3495 H         1 <0>         0.1346
     61 H25         4.5378    0.5631   -0.7507 H         1 <0>         0.1270
     62 H26         4.8899    2.1489   -1.4872 H         1 <0>         0.0875
     63 H27         5.9308    3.8330   -0.0157 H         1 <0>         0.4282
     64 H28         6.6026    3.4385    1.4344 H         1 <0>         0.4335
@<TRIPOS>BOND
     1    1    6 ar
     2    1    2 ar
     3    1   37 1
     4    2    3 ar
     5    2   38 1
     6    3    4 ar
     7    3   31 1
     8    4    5 ar
     9    4   39 1
    10    5    6 ar
    11    5   40 1
    12    6    7 1
    13    7    8 1
    14    7   41 1
    15    8   18 ar
    16    8    9 ar
    17    9   10 ar
    18   10   11 ar
    19   10   42 1
    20   11   17 ar
    21   11   12 1
    22   12   13 2
    23   12   14 1
    24   14   15 2
    25   14   28 1
    26   15   16 1
    27   15   43 1
    28   16   17 1
    29   16   19 1
    30   17   18 ar
    31   19   24 ar
    32   19   20 ar
    33   20   21 ar
    34   20   44 1
    35   21   22 ar
    36   21   45 1
    37   22   27 1
    38   22   23 ar
    39   23   24 ar
    40   23   25 1
    41   24   46 1
    42   25   26 1
    43   25   47 1
    44   25   48 1
    45   26   27 1
    46   26   49 1
    47   26   50 1
    48   27   51 1
    49   27   52 1
    50   28   29 2
    51   28   30 am
    52   30   53 1
    53   30   54 1
    54   31   36 1
    55   31   32 1
    56   32   33 1
    57   32   55 1
    58   32   56 1
    59   33   34 1
    60   33   57 1
    61   33   58 1
    62   34   35 1
    63   34   63 1
    64   34   64 1
    65   35   36 1
    66   35   59 1
    67   35   60 1
    68   36   61 1
    69   36   62 1
@<TRIPOS>MOLECULE
CHEMBL1172117
   46    49     0     0     0
SMALL
USER_CHARGES

@<TRIPOS>ATOM
      1 C1         -0.0482    1.3740   -0.0358 C.ar      1 <0>        -0.0714
      2 C2          1.1596    2.0582   -0.0469 C.ar      1 <0>        -0.1879
      3 C3          2.3432    1.3442   -0.0571 C.ar      1 <0>         0.1049
      4 N1          2.3386    0.0264   -0.0565 N.ar      1 <0>        -0.4830
      5 C4          1.2062   -0.6650   -0.0461 C.ar      1 <0>         0.1874
      6 C5         -0.0237   -0.0094   -0.0354 C.ar      1 <0>        -0.1698
      7 C6          1.2496   -2.1472   -0.0458 C.ar      1 <0>        -0.0893
      8 C7          0.0615   -2.8796   -0.0406 C.ar      1 <0>        -0.0776
      9 C8          0.0953   -4.2578   -0.0399 C.ar      1 <0>        -0.1309
     10 C9          1.3123   -4.9266   -0.0442 C.ar      1 <0>         0.1939
     11 C10         2.5113   -4.1988   -0.0499 C.ar      1 <0>        -0.0930
     12 C11         2.4747   -2.8068   -0.0564 C.ar      1 <0>        -0.0436
     13 C12         3.8080   -4.9063   -0.0541 C.2       1 <0>        -0.0905
     14 C13         4.2084   -5.4680    1.0615 C.2       1 <0>        -0.1237
     15 C14         5.5053   -6.2095    1.2055 C.3       1 <0>        -0.0877
     16 C15         6.0576   -6.5775   -0.1732 C.3       1 <0>        -0.1220
     17 C16         6.0449   -5.3216   -1.0535 C.3       1 <0>        -0.1165
     18 C17         4.5873   -4.9455   -1.3362 C.3       1 <0>        -0.0764
     19 N2          1.3423   -6.3203   -0.0425 N.am      1 <0>        -0.6620
     20 C18         0.4015   -7.0138    0.6285 C.2       1 <0>         0.6276
     21 O1         -0.5200   -6.4277    1.1634 O.2       1 <0>        -0.5295
     22 C19         0.4895   -8.4838    0.7141 C.2       1 <0>         0.0491
     23 N3          1.4757   -9.2554    0.1626 N.2       1 <0>        -0.5282
     24 C20         1.1999  -10.5416    0.4613 C.2       1 <0>        -0.0066
     25 C21         0.0333  -10.5396    1.2012 C.2       1 <0>        -0.0435
     26 N4         -0.3624   -9.2645    1.3364 N.2       1 <0>        -0.4515
     27 C22        -0.6312  -11.6910    1.7335 C.1       1 <0>         0.3325
     28 N5         -1.1583  -12.6044    2.1557 N.1       1 <0>        -0.4925
     29 H1         -0.9859    1.9096   -0.0233 H         1 <0>         0.1335
     30 H2          1.1744    3.1380   -0.0479 H         1 <0>         0.1319
     31 H3          3.2845    1.8736   -0.0661 H         1 <0>         0.1547
     32 H4         -0.9448   -0.5734   -0.0266 H         1 <0>         0.1379
     33 H5         -0.8879   -2.3648   -0.0368 H         1 <0>         0.1257
     34 H6         -0.8274   -4.8190   -0.0355 H         1 <0>         0.1472
     35 H7          3.3946   -2.2409   -0.0649 H         1 <0>         0.1353
     36 H8          3.5674   -5.3921    1.9274 H         1 <0>         0.1024
     37 H9          6.2259   -5.5794    1.7269 H         1 <0>         0.0708
     38 H10         5.3394   -7.1191    1.7828 H         1 <0>         0.0745
     39 H11         7.0792   -6.9439   -0.0727 H         1 <0>         0.0616
     40 H12         5.4320   -7.3475   -0.6247 H         1 <0>         0.0703
     41 H13         6.5432   -4.5042   -0.5325 H         1 <0>         0.0624
     42 H14         6.5577   -5.5277   -1.9930 H         1 <0>         0.0631
     43 H15         4.1437   -5.6820   -2.0063 H         1 <0>         0.0737
     44 H16         4.5546   -3.9639   -1.8090 H         1 <0>         0.0701
     45 H17         2.0404   -6.7910   -0.5243 H         1 <0>         0.4195
     46 H18         1.7795  -11.4071    0.1761 H         1 <0>         0.1474
@<TRIPOS>BOND
     1    1    6 ar
     2    1    2 ar
     3    1   29 1
     4    2    3 ar
     5    2   30 1
     6    3    4 ar
     7    3   31 1
     8    4    5 ar
     9    5    6 ar
    10    5    7 1
    11    6   32 1
    12    7   12 ar
    13    7    8 ar
    14    8    9 ar
    15    8   33 1
    16    9   10 ar
    17    9   34 1
    18   10   11 ar
    19   10   19 1
    20   11   12 ar
    21   11   13 1
    22   12   35 1
    23   13   18 1
    24   13   14 2
    25   14   15 1
    26   14   36 1
    27   15   16 1
    28   15   37 1
    29   15   38 1
    30   16   17 1
    31   16   39 1
    32   16   40 1
    33   17   18 1
    34   17   41 1
    35   17   42 1
    36   18   43 1
    37   18   44 1
    38   19   20 am
    39   19   45 1
    40   20   21 2
    41   20   22 1
    42   22   26 2
    43   22   23 1
    44   23   24 1
    45   24   25 2
    46   24   46 1
    47   25   26 1
    48   25   27 1
    49   27   28 3
@<TRIPOS>MOLECULE
CHEMBL1172117__1
   47    50     0     0     0
SMALL
USER_CHARGES

@<TRIPOS>ATOM
      1 C1         -0.0482    1.3740   -0.0358 C.ar      1 <0>        -0.0711
      2 C2          1.1596    2.0582   -0.0469 C.ar      1 <0>        -0.1767
      3 C3          2.3432    1.3442   -0.0571 C.ar      1 <0>         0.1061
      4 N1          2.3386    0.0264   -0.0565 N.ar      1 <0>        -0.4794
      5 C4          1.2062   -0.6650   -0.0461 C.ar      1 <0>         0.1710
      6 C5         -0.0237   -0.0094   -0.0354 C.ar      1 <0>        -0.1647
      7 C6          1.2496   -2.1472   -0.0458 C.ar      1 <0>        -0.0601
      8 C7          0.0615   -2.8796   -0.0406 C.ar      1 <0>        -0.0826
      9 C8          0.0953   -4.2578   -0.0399 C.ar      1 <0>        -0.1201
     10 C9          1.3123   -4.9266   -0.0442 C.ar      1 <0>         0.1607
     11 C10         2.5113   -4.1988   -0.0499 C.ar      1 <0>        -0.0722
     12 C11         2.4747   -2.8068   -0.0564 C.ar      1 <0>        -0.0479
     13 C12         3.8080   -4.9063   -0.0541 C.2       1 <0>        -0.0953
     14 C13         4.2084   -5.4680    1.0615 C.2       1 <0>        -0.1234
     15 C14         5.5053   -6.2095    1.2055 C.3       1 <0>        -0.0904
     16 C15         6.0576   -6.5775   -0.1732 C.3       1 <0>        -0.1222
     17 C16         6.0449   -5.3216   -1.0535 C.3       1 <0>        -0.1194
     18 C17         4.5873   -4.9455   -1.3362 C.3       1 <0>        -0.0780
     19 N2          1.3423   -6.3203   -0.0425 N.am      1 <0>        -0.6385
     20 C18         0.4015   -7.0138    0.6285 C.2       1 <0>         0.6108
     21 O1         -0.5200   -6.4277    1.1634 O.2       1 <0>        -0.5125
     22 C19         0.4895   -8.4838    0.7141 C.2       1 <0>         0.1602
     23 N3         -0.4016   -9.2981    1.3583 N.pl3     1 <0>        -0.5110
     24 H1         -1.1966   -9.0139    1.8358 H         1 <0>         0.4427
     25 C20         0.0272  -10.5683    1.2082 C.2       1 <0>         0.0643
     26 C21         1.1900  -10.5132    0.4645 C.2       1 <0>         0.0603
     27 N4          1.4321   -9.2244    0.1799 N.2       1 <0>        -0.4014
     28 C22         1.9901  -11.6313    0.0640 C.1       1 <0>         0.2942
     29 N5          2.6248  -12.5182   -0.2538 N.1       1 <0>        -0.3922
     30 H2         -0.9859    1.9096   -0.0233 H         1 <0>         0.1369
     31 H3          1.1744    3.1380   -0.0479 H         1 <0>         0.1364
     32 H4          3.2845    1.8736   -0.0661 H         1 <0>         0.1586
     33 H5         -0.9448   -0.5734   -0.0266 H         1 <0>         0.1378
     34 H6         -0.8879   -2.3648   -0.0368 H         1 <0>         0.1318
     35 H7         -0.8274   -4.8190   -0.0355 H         1 <0>         0.1457
     36 H8          3.3946   -2.2409   -0.0649 H         1 <0>         0.1419
     37 H9          3.5674   -5.3921    1.9274 H         1 <0>         0.1024
     38 H10         6.2259   -5.5794    1.7269 H         1 <0>         0.0762
     39 H11         5.3394   -7.1191    1.7828 H         1 <0>         0.0733
     40 H12         7.0792   -6.9439   -0.0727 H         1 <0>         0.0656
     41 H13         5.4320   -7.3475   -0.6247 H         1 <0>         0.0665
     42 H14         6.5432   -4.5042   -0.5325 H         1 <0>         0.0659
     43 H15         6.5577   -5.5277   -1.9930 H         1 <0>         0.0671
     44 H16         4.1437   -5.6820   -2.0063 H         1 <0>         0.0737
     45 H17         4.5546   -3.9639   -1.8090 H         1 <0>         0.0741
     46 H18         2.0404   -6.7910   -0.5243 H         1 <0>         0.4252
     47 H19        -0.4473  -11.4577    1.5958 H         1 <0>         0.2093
@<TRIPOS>BOND
     1    1    6 ar
     2    1    2 ar
     3    1   30 1
     4    2    3 ar
     5    2   31 1
     6    3    4 ar
     7    3   32 1
     8    4    5 ar
     9    5    6 ar
    10    5    7 1
    11    6   33 1
    12    7   12 ar
    13    7    8 ar
    14    8    9 ar
    15    8   34 1
    16    9   10 ar
    17    9   35 1
    18   10   11 ar
    19   10   19 1
    20   11   12 ar
    21   11   13 1
    22   12   36 1
    23   13   18 1
    24   13   14 2
    25   14   15 1
    26   14   37 1
    27   15   16 1
    28   15   38 1
    29   15   39 1
    30   16   17 1
    31   16   40 1
    32   16   41 1
    33   17   18 1
    34   17   42 1
    35   17   43 1
    36   18   44 1
    37   18   45 1
    38   19   20 am
    39   19   46 1
    40   20   21 2
    41   20   22 1
    42   22   27 2
    43   22   23 1
    44   23   24 1
    45   23   25 1
    46   25   26 2
    47   25   47 1
    48   26   27 1
    49   26   28 1
    50   28   29 3
@<TRIPOS>MOLECULE
CHEMBL1172116
   47    50     0     0     0
SMALL
USER_CHARGES

@<TRIPOS>ATOM
      1 C1          2.2802    1.4401   -0.4584 C.ar      1 <0>        -0.0745
      2 C2          1.1688    2.0576    0.0985 C.ar      1 <0>        -0.1396
      3 C3          0.1433    1.2808    0.6038 C.ar      1 <0>         0.0774
      4 N1          0.2083   -0.0357    0.5635 N.ar      1 <0>        -0.1230
      5 O1         -0.8626   -0.7969    1.0914 O.3       1 <0>        -0.5369
      6 C4          1.2537   -0.6646    0.0394 C.ar      1 <0>         0.1702
      7 C5          2.3225    0.0573   -0.4883 C.ar      1 <0>        -0.1220
      8 C6          1.2843   -2.1470    0.0158 C.ar      1 <0>        -0.1186
      9 C7          2.5063   -2.8200    0.0573 C.ar      1 <0>        -0.0659
     10 C8          2.5412   -4.1981    0.0352 C.ar      1 <0>        -0.1515
     11 C9          1.3603   -4.9257   -0.0286 C.ar      1 <0>         0.2062
     12 C10         0.1277   -4.2579   -0.0702 C.ar      1 <0>        -0.1075
     13 C11         0.0945   -2.8661   -0.0420 C.ar      1 <0>        -0.0198
     14 C12        -1.1309   -5.0282   -0.1380 C.2       1 <0>        -0.0829
     15 C13        -1.4497   -5.5906   -1.2793 C.2       1 <0>        -0.1311
     16 C14        -2.6997   -6.3929   -1.4954 C.3       1 <0>        -0.0865
     17 C15        -3.2972   -6.8099   -0.1499 C.3       1 <0>        -0.1219
     18 C16        -3.3890   -5.5692    0.7471 C.3       1 <0>        -0.1161
     19 C17        -1.9668   -5.1265    1.1047 C.3       1 <0>        -0.0790
     20 N2          1.3999   -6.3193   -0.0517 N.am      1 <0>        -0.6580
     21 C18         2.4766   -6.9546   -0.5553 C.2       1 <0>         0.6280
     22 O2          3.4457   -6.3154   -0.9170 O.2       1 <0>        -0.5274
     23 C19         2.4793   -8.4255   -0.6678 C.2       1 <0>         0.0478
     24 N3          1.4530   -9.2534   -0.3026 N.2       1 <0>        -0.5277
     25 C20         1.8410  -10.5193   -0.5607 C.2       1 <0>        -0.0059
     26 C21         3.1162  -10.4479   -1.0871 C.2       1 <0>        -0.0430
     27 N4          3.4644   -9.1530   -1.1396 N.2       1 <0>        -0.4508
     28 C22         3.9200  -11.5563   -1.5066 C.1       1 <0>         0.3326
     29 N5          4.5576  -12.4356   -1.8393 N.1       1 <0>        -0.4920
     30 H1          3.0920    2.0260   -0.8635 H         1 <0>         0.1527
     31 H2          1.1061    3.1351    0.1370 H         1 <0>         0.1601
     32 H3         -0.7227    1.7584    1.0377 H         1 <0>         0.1797
     33 H4          3.1721   -0.4554   -0.9147 H         1 <0>         0.1634
     34 H5          3.4279   -2.2592    0.1066 H         1 <0>         0.1255
     35 H6          3.4899   -4.7132    0.0672 H         1 <0>         0.1601
     36 H7         -0.8518   -2.3462   -0.0693 H         1 <0>         0.1585
     37 H8         -0.7734   -5.4689   -2.1124 H         1 <0>         0.1020
     38 H9         -3.4255   -5.7909   -2.0420 H         1 <0>         0.0701
     39 H10        -2.4613   -7.2837   -2.0765 H         1 <0>         0.0739
     40 H11        -4.2933   -7.2247   -0.3043 H         1 <0>         0.0613
     41 H12        -2.6558   -7.5552    0.3205 H         1 <0>         0.0698
     42 H13        -3.9026   -4.7691    0.2141 H         1 <0>         0.0624
     43 H14        -3.9346   -5.8155    1.6580 H         1 <0>         0.0629
     44 H15        -1.5192   -5.8512    1.7849 H         1 <0>         0.0726
     45 H16        -2.0055   -4.1524    1.5921 H         1 <0>         0.0753
     46 H17         0.6526   -6.8315    0.2947 H         1 <0>         0.4209
     47 H18         1.2652  -11.4167   -0.3884 H         1 <0>         0.1478
@<TRIPOS>BOND
     1    1    7 ar
     2    1    2 ar
     3    1   30 1
     4    2    3 ar
     5    2   31 1
     6    3    4 ar
     7    3   32 1
     8    4    5 1
     9    4    6 ar
    10    6    7 ar
    11    6    8 1
    12    7   33 1
    13    8   13 ar
    14    8    9 ar
    15    9   10 ar
    16    9   34 1
    17   10   11 ar
    18   10   35 1
    19   11   12 ar
    20   11   20 1
    21   12   13 ar
    22   12   14 1
    23   13   36 1
    24   14   19 1
    25   14   15 2
    26   15   16 1
    27   15   37 1
    28   16   17 1
    29   16   38 1
    30   16   39 1
    31   17   18 1
    32   17   40 1
    33   17   41 1
    34   18   19 1
    35   18   42 1
    36   18   43 1
    37   19   44 1
    38   19   45 1
    39   20   21 am
    40   20   46 1
    41   21   22 2
    42   21   23 1
    43   23   27 2
    44   23   24 1
    45   24   25 1
    46   25   26 2
    47   25   47 1
    48   26   27 1
    49   26   28 1
    50   28   29 3
@<TRIPOS>MOLECULE
CHEMBL1172116__1
   48    51     0     0     0
SMALL
USER_CHARGES

@<TRIPOS>ATOM
      1 C1          2.2802    1.4401   -0.4584 C.ar      1 <0>        -0.0735
      2 C2          1.1688    2.0576    0.0985 C.ar      1 <0>        -0.1289
      3 C3          0.1433    1.2808    0.6038 C.ar      1 <0>         0.0796
      4 N1          0.2083   -0.0357    0.5635 N.ar      1 <0>        -0.1198
      5 O1         -0.8626   -0.7969    1.0914 O.3       1 <0>        -0.5350
      6 C4          1.2537   -0.6646    0.0394 C.ar      1 <0>         0.1538
      7 C5          2.3225    0.0573   -0.4883 C.ar      1 <0>        -0.1174
      8 C6          1.2843   -2.1470    0.0158 C.ar      1 <0>        -0.0894
      9 C7          2.5063   -2.8200    0.0573 C.ar      1 <0>        -0.0705
     10 C8          2.5412   -4.1981    0.0352 C.ar      1 <0>        -0.1405
     11 C9          1.3603   -4.9257   -0.0286 C.ar      1 <0>         0.1736
     12 C10         0.1277   -4.2579   -0.0702 C.ar      1 <0>        -0.0853
     13 C11         0.0945   -2.8661   -0.0420 C.ar      1 <0>        -0.0245
     14 C12        -1.1309   -5.0282   -0.1380 C.2       1 <0>        -0.0889
     15 C13        -1.4497   -5.5906   -1.2793 C.2       1 <0>        -0.1295
     16 C14        -2.6997   -6.3929   -1.4954 C.3       1 <0>        -0.0895
     17 C15        -3.2972   -6.8099   -0.1499 C.3       1 <0>        -0.1221
     18 C16        -3.3890   -5.5692    0.7471 C.3       1 <0>        -0.1188
     19 C17        -1.9668   -5.1265    1.1047 C.3       1 <0>        -0.0803
     20 N2          1.3999   -6.3193   -0.0517 N.am      1 <0>        -0.6358
     21 C18         2.4766   -6.9546   -0.5553 C.2       1 <0>         0.6113
     22 O2          3.4457   -6.3154   -0.9170 O.2       1 <0>        -0.5113
     23 C19         2.4793   -8.4255   -0.6678 C.2       1 <0>         0.1591
     24 N3          3.5085   -9.1844   -1.1547 N.pl3     1 <0>        -0.5107
     25 H1          4.3587   -8.8537   -1.4843 H         1 <0>         0.4428
     26 C20         3.1254  -10.4763   -1.0920 C.2       1 <0>         0.0649
     27 C21         1.8503  -10.4905   -0.5607 C.2       1 <0>         0.0608
     28 N4          1.4973   -9.2200   -0.3118 N.2       1 <0>        -0.4009
     29 C22         1.0509  -11.6529   -0.3145 C.1       1 <0>         0.2939
     30 N5          0.4168  -12.5749   -0.1192 N.1       1 <0>        -0.3916
     31 H2          3.0920    2.0260   -0.8635 H         1 <0>         0.1560
     32 H3          1.1061    3.1351    0.1370 H         1 <0>         0.1644
     33 H4         -0.7227    1.7584    1.0377 H         1 <0>         0.1835
     34 H5          3.1721   -0.4554   -0.9147 H         1 <0>         0.1636
     35 H6          3.4279   -2.2592    0.1066 H         1 <0>         0.1317
     36 H7          3.4899   -4.7132    0.0672 H         1 <0>         0.1577
     37 H8         -0.8518   -2.3462   -0.0693 H         1 <0>         0.1649
     38 H9         -0.7734   -5.4689   -2.1124 H         1 <0>         0.1023
     39 H10        -3.4255   -5.7909   -2.0420 H         1 <0>         0.0756
     40 H11        -2.4613   -7.2837   -2.0765 H         1 <0>         0.0730
     41 H12        -4.2933   -7.2247   -0.3043 H         1 <0>         0.0653
     42 H13        -2.6558   -7.5552    0.3205 H         1 <0>         0.0661
     43 H14        -3.9026   -4.7691    0.2141 H         1 <0>         0.0660
     44 H15        -3.9346   -5.8155    1.6580 H         1 <0>         0.0668
     45 H16        -1.5192   -5.8512    1.7849 H         1 <0>         0.0725
     46 H17        -2.0055   -4.1524    1.5921 H         1 <0>         0.0791
     47 H18         0.6526   -6.8315    0.2947 H         1 <0>         0.4265
     48 H19         3.7044  -11.3348   -1.3988 H         1 <0>         0.2096
@<TRIPOS>BOND
     1    1    7 ar
     2    1    2 ar
     3    1   31 1
     4    2    3 ar
     5    2   32 1
     6    3    4 ar
     7    3   33 1
     8    4    5 1
     9    4    6 ar
    10    6    7 ar
    11    6    8 1
    12    7   34 1
    13    8   13 ar
    14    8    9 ar
    15    9   10 ar
    16    9   35 1
    17   10   11 ar
    18   10   36 1
    19   11   12 ar
    20   11   20 1
    21   12   13 ar
    22   12   14 1
    23   13   37 1
    24   14   19 1
    25   14   15 2
    26   15   16 1
    27   15   38 1
    28   16   17 1
    29   16   39 1
    30   16   40 1
    31   17   18 1
    32   17   41 1
    33   17   42 1
    34   18   19 1
    35   18   43 1
    36   18   44 1
    37   19   45 1
    38   19   46 1
    39   20   21 am
    40   20   47 1
    41   21   22 2
    42   21   23 1
    43   23   28 2
    44   23   24 1
    45   24   25 1
    46   24   26 1
    47   26   27 2
    48   26   48 1
    49   27   28 1
    50   27   29 1
    51   29   30 3
@<TRIPOS>MOLECULE
CHEMBL256406
   65    70     0     0     0
SMALL
USER_CHARGES

@<TRIPOS>ATOM
      1 C1          0.9756   -0.2252   -0.9202 C.ar      1 <0>        -0.0941
      2 C2          2.1606    0.4370   -0.6661 C.ar      1 <0>        -0.1086
      3 C3          2.4673    1.6000   -1.3610 C.ar      1 <0>         0.1561
      4 C4          1.5804    2.0930   -2.3095 C.ar      1 <0>        -0.1420
      5 C5          0.3971    1.4259   -2.5588 C.ar      1 <0>        -0.0758
      6 C6          0.0948    0.2684   -1.8652 C.ar      1 <0>        -0.0914
      7 C7         -1.1974   -0.4569   -2.1398 C.3       1 <0>         0.0947
      8 N1         -2.2467    0.0584   -1.2501 N.3       1 <0>        -0.5316
      9 C8         -1.9581   -0.2738    0.1526 C.3       1 <0>         0.0138
     10 C9         -3.0422    0.3315    1.0482 C.3       1 <0>         0.0632
     11 O1         -4.3224   -0.1497    0.6302 O.3       1 <0>        -0.3855
     12 C10        -4.6364    0.1569   -0.7309 C.3       1 <0>         0.0633
     13 C11        -3.5684   -0.4502   -1.6446 C.3       1 <0>         0.0166
     14 N2          3.6659    2.2731   -1.1059 N.pl3     1 <0>        -0.6234
     15 C12         4.7953    1.5618   -0.7501 C.ar      1 <0>         0.6115
     16 N3          4.7452    0.2342   -0.7651 N.ar      1 <0>        -0.5655
     17 C13         5.7988   -0.4911   -0.4332 C.ar      1 <0>         0.2827
     18 C14         6.9717    0.1703   -0.0647 C.ar      1 <0>        -0.3381
     19 C15         8.1899   -0.5579    0.3184 C.2       1 <0>         0.4547
     20 O2          8.2260   -1.7761    0.3300 O.2       1 <0>        -0.4798
     21 C16         9.3657    0.2504    0.6873 C.2       1 <0>        -0.3252
     22 C17         9.2660    1.6242    0.6553 C.2       1 <0>         0.2535
     23 N4          8.1326    2.2537    0.2989 N.pl3     1 <0>        -0.4246
     24 C18         6.9917    1.5795   -0.0592 C.ar      1 <0>         0.4655
     25 N5          5.8879    2.2291   -0.4125 N.ar      1 <0>        -0.5857
     26 C19         8.1154    3.6536    0.2927 C.ar      1 <0>         0.0933
     27 C20         8.8651    4.3555   -0.6424 C.ar      1 <0>        -0.1000
     28 C21         8.8440    5.7350   -0.6442 C.ar      1 <0>        -0.0948
     29 C22         8.0786    6.4239    0.2830 C.ar      1 <0>        -0.0754
     30 C23         7.3312    5.7280    1.2153 C.ar      1 <0>        -0.0856
     31 C24         7.3449    4.3442    1.2170 C.ar      1 <0>        -0.0678
     32 C25         6.5905    6.7015    2.1070 C.3       1 <0>        -0.0832
     33 C26         7.3015    8.0563    1.9045 C.3       1 <0>        -0.1211
     34 C27         7.8903    7.9125    0.4851 C.3       1 <0>        -0.0868
     35 C28        10.6251   -0.3990    1.0838 C.2       1 <0>         0.5911
     36 O3         11.5553    0.2731    1.4872 O.2       1 <0>        -0.5589
     37 N6         10.7481   -1.7386    1.0001 N.am      1 <0>        -0.8424
     38 H1          0.7386   -1.1319   -0.3835 H         1 <0>         0.1229
     39 H2          2.8478    0.0513    0.0723 H         1 <0>         0.1363
     40 H3          1.8157    2.9971   -2.8513 H         1 <0>         0.1259
     41 H4         -0.2931    1.8089   -3.2959 H         1 <0>         0.1280
     42 H5         -1.4902   -0.2973   -3.1775 H         1 <0>         0.0858
     43 H6         -1.0606   -1.5233   -1.9607 H         1 <0>         0.0459
     44 H7         -1.9474   -1.3569    0.2754 H         1 <0>         0.0433
     45 H8         -0.9864    0.1342    0.4308 H         1 <0>         0.0907
     46 H9         -2.8639    0.0399    2.0833 H         1 <0>         0.0980
     47 H10        -3.0172    1.4182    0.9661 H         1 <0>         0.0596
     48 H11        -5.6111   -0.2609   -0.9827 H         1 <0>         0.0990
     49 H12        -4.6578    1.2385   -0.8648 H         1 <0>         0.0602
     50 H13        -3.7722   -0.1709   -2.6783 H         1 <0>         0.0877
     51 H14        -3.5835   -1.5361   -1.5505 H         1 <0>         0.0444
     52 H15         3.7043    3.2396   -1.1787 H         1 <0>         0.4265
     53 H16         5.7535   -1.5700   -0.4464 H         1 <0>         0.1932
     54 H17        10.1279    2.2159    0.9261 H         1 <0>         0.1892
     55 H18         9.4636    3.8225   -1.3663 H         1 <0>         0.1329
     56 H19         9.4270    6.2805   -1.3715 H         1 <0>         0.1334
     57 H20         6.7577    3.8006    1.9423 H         1 <0>         0.1238
     58 H21         5.5461    6.7733    1.8031 H         1 <0>         0.0842
     59 H22         6.6613    6.3892    3.1489 H         1 <0>         0.0784
     60 H23         6.5874    8.8787    1.9462 H         1 <0>         0.0809
     61 H24         8.0938    8.1919    2.6407 H         1 <0>         0.0757
     62 H25         8.8489    8.4273    0.4193 H         1 <0>         0.0809
     63 H26         7.1953    8.3097   -0.2547 H         1 <0>         0.0858
     64 H27        10.0346   -2.2677    0.6104 H         1 <0>         0.4130
     65 H28        11.5501   -2.1735    1.3295 H         1 <0>         0.4019
@<TRIPOS>BOND
     1    1    6 ar
     2    1    2 ar
     3    1   38 1
     4    2    3 ar
     5    2   39 1
     6    3    4 ar
     7    3   14 1
     8    4    5 ar
     9    4   40 1
    10    5    6 ar
    11    5   41 1
    12    6    7 1
    13    7    8 1
    14    7   42 1
    15    7   43 1
    16    8   13 1
    17    8    9 1
    18    9   10 1
    19    9   44 1
    20    9   45 1
    21   10   11 1
    22   10   46 1
    23   10   47 1
    24   11   12 1
    25   12   13 1
    26   12   48 1
    27   12   49 1
    28   13   50 1
    29   13   51 1
    30   14   15 1
    31   14   52 1
    32   15   25 ar
    33   15   16 ar
    34   16   17 ar
    35   17   18 ar
    36   17   53 1
    37   18   24 ar
    38   18   19 1
    39   19   20 2
    40   19   21 1
    41   21   22 2
    42   21   35 1
    43   22   23 1
    44   22   54 1
    45   23   24 1
    46   23   26 1
    47   24   25 ar
    48   26   31 ar
    49   26   27 ar
    50   27   28 ar
    51   27   55 1
    52   28   29 ar
    53   28   56 1
    54   29   34 1
    55   29   30 ar
    56   30   31 ar
    57   30   32 1
    58   31   57 1
    59   32   33 1
    60   32   58 1
    61   32   59 1
    62   33   34 1
    63   33   60 1
    64   33   61 1
    65   34   62 1
    66   34   63 1
    67   35   36 2
    68   35   37 am
    69   37   64 1
    70   37   65 1
@<TRIPOS>MOLECULE
CHEMBL253968
   69    73     0     0     0
SMALL
USER_CHARGES

@<TRIPOS>ATOM
      1 C1         -1.1753    1.1614    1.5076 C.ar      1 <0>        -0.0736
      2 C2          0.0020    1.8476    1.2789 C.ar      1 <0>        -0.1161
      3 C3          1.2125    1.3039    1.6861 C.ar      1 <0>         0.1471
      4 C4          1.2372    0.0688    2.3237 C.ar      1 <0>         0.0314
      5 C5          0.0541   -0.6142    2.5501 C.ar      1 <0>         0.0919
      6 C6         -1.1507   -0.0667    2.1415 C.ar      1 <0>        -0.1421
      7 F1          0.0751   -1.8149    3.1691 F         1 <0>        -0.1230
      8 F2          2.4132   -0.4642    2.7213 F         1 <0>        -0.1269
      9 N1          2.4066    1.9980    1.4547 N.am      1 <0>        -0.6662
     10 C7          2.3900    3.3379    1.3099 C.2       1 <0>         0.5010
     11 O1          1.3577    3.9530    1.4746 O.2       1 <0>        -0.4774
     12 C8          3.6542    4.0719    0.9436 C.3       1 <0>         0.1279
     13 N2          3.3753    5.5069    0.8475 N.pl3     1 <0>        -0.3669
     14 C9          4.0264    6.4948    1.5158 C.2       1 <0>         0.0186
     15 C10         3.4663    7.6756    1.1486 C.2       1 <0>         0.0090
     16 C11         2.4436    7.3988    0.2295 C.2       1 <0>         0.0563
     17 N3          2.3942    6.1043    0.0458 N.2       1 <0>        -0.2508
     18 N4          3.8439    8.9507    1.6090 N.pl3     1 <0>        -0.6087
     19 C12         3.1830   10.0769    1.1484 C.ar      1 <0>         0.3846
     20 C13         3.5555   11.3642    1.5978 C.ar      1 <0>        -0.1386
     21 C14         4.5918   11.5727    2.5142 C.ar      1 <0>        -0.0389
     22 C15         4.9000   12.8407    2.9055 C.ar      1 <0>        -0.1919
     23 C16         4.1957   13.9398    2.4049 C.ar      1 <0>         0.1472
     24 C17         3.1695   13.7676    1.5008 C.ar      1 <0>        -0.1306
     25 C18         2.8350   12.4742    1.0842 C.ar      1 <0>        -0.0018
     26 C19         1.8008   12.2159    0.1640 C.ar      1 <0>         0.0187
     27 N5          1.5464   10.9745   -0.1788 N.ar      1 <0>        -0.2002
     28 N6          2.1954    9.9683    0.2760 N.ar      1 <0>        -0.3331
     29 O2          4.5263   15.1920    2.8146 O.3       1 <0>        -0.3070
     30 C20         5.5980   15.3058    3.7529 C.3       1 <0>         0.0602
     31 C21         5.8232   16.7803    4.0935 C.3       1 <0>        -0.1497
     32 C22         6.9707   16.9021    5.0982 C.3       1 <0>        -0.0174
     33 N7          7.1870   18.3178    5.4252 N.4       1 <0>        -0.3820
     34 C23         7.6201   19.0476    4.2146 C.3       1 <0>        -0.0135
     35 C24         8.6410   20.0938    4.7273 C.3       1 <0>        -0.1448
     36 C25         9.3698   19.2997    5.8431 C.3       1 <0>        -0.1270
     37 C26         8.2432   18.4353    6.4472 C.3       1 <0>         0.0204
     38 H1          7.8438   18.9174    7.3395 H         1 <0>         0.1482
     39 C27         8.7835   17.0478    6.7992 C.3       1 <0>         0.0614
     40 O3          9.8472   17.1766    7.7447 O.3       1 <0>        -0.5557
     41 H2         -2.1170    1.5874    1.1943 H         1 <0>         0.1476
     42 H3         -0.0196    2.8069    0.7831 H         1 <0>         0.1636
     43 H4         -2.0728   -0.6002    2.3189 H         1 <0>         0.1500
     44 H5          3.2456    1.5145    1.3985 H         1 <0>         0.4180
     45 H6          4.4098    3.8991    1.7100 H         1 <0>         0.1311
     46 H7          4.0205    3.7078   -0.0163 H         1 <0>         0.1245
     47 H8          4.8411    6.3642    2.2127 H         1 <0>         0.1771
     48 H9          1.8087    8.1298   -0.2488 H         1 <0>         0.2188
     49 H10         4.5672    9.0406    2.2491 H         1 <0>         0.4172
     50 H11         5.1442   10.7331    2.9095 H         1 <0>         0.1358
     51 H12         5.7001   12.9992    3.6133 H         1 <0>         0.1350
     52 H13         2.6298   14.6213    1.1182 H         1 <0>         0.1509
     53 H14         1.2246   13.0281   -0.2539 H         1 <0>         0.1781
     54 H15         5.3458   14.7576    4.6607 H         1 <0>         0.0750
     55 H16         6.5071   14.8903    3.3183 H         1 <0>         0.0746
     56 H17         6.0754   17.3285    3.1858 H         1 <0>         0.1013
     57 H18         4.9141   17.1958    4.5282 H         1 <0>         0.1015
     58 H19         6.7186   16.3540    6.0060 H         1 <0>         0.1373
     59 H20         7.8798   16.4866    4.6636 H         1 <0>         0.1364
     60 H21         8.0969   18.3655    3.5106 H         1 <0>         0.1334
     61 H22         6.7703   19.5444    3.7465 H         1 <0>         0.1396
     62 H23         9.3342   20.3827    3.9373 H         1 <0>         0.1195
     63 H24         8.1330   20.9666    5.1374 H         1 <0>         0.1010
     64 H25        10.1532   18.6709    5.4198 H         1 <0>         0.0999
     65 H26         9.7803   19.9764    6.5925 H         1 <0>         0.1167
     66 H27         7.9843   16.4456    7.2313 H         1 <0>         0.0697
     67 H28         9.1562   16.5633    5.8967 H         1 <0>         0.0689
     68 H29        10.2384   16.3342    8.0138 H         1 <0>         0.4063
     69 H30         6.3305   18.7212    5.7742 H         1 <0>         0.4313
@<TRIPOS>BOND
     1    1    6 ar
     2    1    2 ar
     3    1   41 1
     4    2    3 ar
     5    2   42 1
     6    3    4 ar
     7    3    9 1
     8    4    5 ar
     9    4    8 1
    10    5    6 ar
    11    5    7 1
    12    6   43 1
    13    9   10 am
    14    9   44 1
    15   10   11 2
    16   10   12 1
    17   12   13 1
    18   12   45 1
    19   12   46 1
    20   13   17 1
    21   13   14 1
    22   14   15 2
    23   14   47 1
    24   15   16 1
    25   15   18 1
    26   16   17 2
    27   16   48 1
    28   18   19 1
    29   18   49 1
    30   19   28 ar
    31   19   20 ar
    32   20   25 ar
    33   20   21 ar
    34   21   22 ar
    35   21   50 1
    36   22   23 ar
    37   22   51 1
    38   23   24 ar
    39   23   29 1
    40   24   25 ar
    41   24   52 1
    42   25   26 ar
    43   26   27 ar
    44   26   53 1
    45   27   28 ar
    46   29   30 1
    47   30   31 1
    48   30   54 1
    49   30   55 1
    50   31   32 1
    51   31   56 1
    52   31   57 1
    53   32   33 1
    54   32   58 1
    55   32   59 1
    56   33   37 1
    57   33   34 1
    58   33   69 1
    59   34   35 1
    60   34   60 1
    61   34   61 1
    62   35   36 1
    63   35   62 1
    64   35   63 1
    65   36   37 1
    66   36   64 1
    67   36   65 1
    68   37   38 1
    69   37   39 1
    70   39   40 1
    71   39   66 1
    72   39   67 1
    73   40   68 1
@<TRIPOS>MOLECULE
CHEMBL253968__1
   70    74     0     0     0
SMALL
USER_CHARGES

@<TRIPOS>ATOM
      1 C1         -1.1753    1.1614    1.5076 C.ar      1 <0>        -0.0745
      2 C2          0.0020    1.8476    1.2789 C.ar      1 <0>        -0.1159
      3 C3          1.2125    1.3039    1.6861 C.ar      1 <0>         0.1405
      4 C4          1.2372    0.0688    2.3237 C.ar      1 <0>         0.0354
      5 C5          0.0541   -0.6142    2.5501 C.ar      1 <0>         0.0948
      6 C6         -1.1507   -0.0667    2.1415 C.ar      1 <0>        -0.1375
      7 F1          0.0751   -1.8149    3.1691 F         1 <0>        -0.1196
      8 F2          2.4132   -0.4642    2.7213 F         1 <0>        -0.1250
      9 N1          2.4066    1.9980    1.4547 N.am      1 <0>        -0.6613
     10 C7          2.3900    3.3379    1.3099 C.2       1 <0>         0.5036
     11 O1          1.3577    3.9530    1.4746 O.2       1 <0>        -0.4844
     12 C8          3.6542    4.0719    0.9436 C.3       1 <0>         0.1184
     13 N2          3.3753    5.5069    0.8475 N.pl3     1 <0>        -0.3489
     14 C9          4.0264    6.4948    1.5158 C.2       1 <0>         0.0633
     15 C10         3.4663    7.6756    1.1486 C.2       1 <0>        -0.0387
     16 C11         2.4436    7.3988    0.2295 C.2       1 <0>         0.0556
     17 N3          2.3942    6.1043    0.0458 N.2       1 <0>        -0.2355
     18 N4          3.8439    8.9507    1.6090 N.pl3     1 <0>        -0.5597
     19 C12         3.1830   10.0769    1.1484 C.ar      1 <0>         0.4567
     20 C13         3.5555   11.3642    1.5978 C.ar      1 <0>        -0.1121
     21 C14         4.5918   11.5727    2.5142 C.ar      1 <0>        -0.0368
     22 C15         4.9000   12.8407    2.9055 C.ar      1 <0>        -0.1495
     23 C16         4.1957   13.9398    2.4049 C.ar      1 <0>         0.1749
     24 C17         3.1695   13.7676    1.5008 C.ar      1 <0>        -0.0993
     25 C18         2.8350   12.4742    1.0842 C.ar      1 <0>        -0.0236
     26 C19         1.8008   12.2159    0.1640 C.ar      1 <0>         0.1506
     27 N5          1.5464   10.9745   -0.1788 N.ar      1 <0>        -0.2191
     28 N6          2.1954    9.9683    0.2760 N.ar      1 <0>        -0.3658
     29 O2          4.5263   15.1920    2.8146 O.3       1 <0>        -0.2949
     30 C20         5.5980   15.3058    3.7529 C.3       1 <0>         0.0550
     31 C21         5.8232   16.7803    4.0935 C.3       1 <0>        -0.1514
     32 C22         6.9707   16.9021    5.0982 C.3       1 <0>        -0.0177
     33 N7          7.1870   18.3178    5.4252 N.4       1 <0>        -0.3821
     34 C23         7.6201   19.0476    4.2146 C.3       1 <0>        -0.0136
     35 C24         8.6410   20.0938    4.7273 C.3       1 <0>        -0.1454
     36 C25         9.3698   19.2997    5.8431 C.3       1 <0>        -0.1275
     37 C26         8.2432   18.4353    6.4472 C.3       1 <0>         0.0195
     38 H1          7.8438   18.9174    7.3395 H         1 <0>         0.1500
     39 C27         8.7835   17.0478    6.7992 C.3       1 <0>         0.0627
     40 O3          9.8472   17.1766    7.7447 O.3       1 <0>        -0.5536
     41 H2         -2.1170    1.5874    1.1943 H         1 <0>         0.1481
     42 H3         -0.0196    2.8069    0.7831 H         1 <0>         0.1612
     43 H4         -2.0728   -0.6002    2.3189 H         1 <0>         0.1524
     44 H5          3.2456    1.5145    1.3985 H         1 <0>         0.4200
     45 H6          4.4098    3.8991    1.7100 H         1 <0>         0.1392
     46 H7          4.0205    3.7078   -0.0163 H         1 <0>         0.1334
     47 H8          4.8411    6.3642    2.2127 H         1 <0>         0.1887
     48 H9          1.8087    8.1298   -0.2488 H         1 <0>         0.2072
     49 H10         4.5672    9.0406    2.2491 H         1 <0>         0.4352
     50 H11         5.1442   10.7331    2.9095 H         1 <0>         0.1543
     51 H12         5.7001   12.9992    3.6133 H         1 <0>         0.1557
     52 H13         2.6298   14.6213    1.1182 H         1 <0>         0.1722
     53 H14         1.2246   13.0281   -0.2539 H         1 <0>         0.2263
     54 H15         5.3458   14.7576    4.6607 H         1 <0>         0.0833
     55 H16         6.5071   14.8903    3.3183 H         1 <0>         0.0829
     56 H17         6.0754   17.3285    3.1858 H         1 <0>         0.1045
     57 H18         4.9141   17.1958    4.5282 H         1 <0>         0.1047
     58 H19         6.7186   16.3540    6.0060 H         1 <0>         0.1382
     59 H20         7.8798   16.4866    4.6636 H         1 <0>         0.1373
     60 H21         8.0969   18.3655    3.5106 H         1 <0>         0.1327
     61 H22         6.7703   19.5444    3.7465 H         1 <0>         0.1395
     62 H23         9.3342   20.3827    3.9373 H         1 <0>         0.1209
     63 H24         8.1330   20.9666    5.1374 H         1 <0>         0.1025
     64 H25        10.1532   18.6709    5.4198 H         1 <0>         0.1005
     65 H26         9.7803   19.9764    6.5925 H         1 <0>         0.1188
     66 H27         7.9843   16.4456    7.2313 H         1 <0>         0.0681
     67 H28         9.1562   16.5633    5.8967 H         1 <0>         0.0673
     68 H29        10.2384   16.3342    8.0138 H         1 <0>         0.4073
     69 H30         6.3305   18.7212    5.7742 H         1 <0>         0.4320
     70 H31         0.8314   10.8108   -0.8135 H         1 <0>         0.4778
@<TRIPOS>BOND
     1    1    6 ar
     2    1    2 ar
     3    1   41 1
     4    2    3 ar
     5    2   42 1
     6    3    4 ar
     7    3    9 1
     8    4    5 ar
     9    4    8 1
    10    5    6 ar
    11    5    7 1
    12    6   43 1
    13    9   10 am
    14    9   44 1
    15   10   11 2
    16   10   12 1
    17   12   13 1
    18   12   45 1
    19   12   46 1
    20   13   17 1
    21   13   14 1
    22   14   15 2
    23   14   47 1
    24   15   16 1
    25   15   18 1
    26   16   17 2
    27   16   48 1
    28   18   19 1
    29   18   49 1
    30   19   28 ar
    31   19   20 ar
    32   20   25 ar
    33   20   21 ar
    34   21   22 ar
    35   21   50 1
    36   22   23 ar
    37   22   51 1
    38   23   24 ar
    39   23   29 1
    40   24   25 ar
    41   24   52 1
    42   25   26 ar
    43   26   27 ar
    44   26   53 1
    45   27   28 ar
    46   27   70 1
    47   29   30 1
    48   30   31 1
    49   30   54 1
    50   30   55 1
    51   31   32 1
    52   31   56 1
    53   31   57 1
    54   32   33 1
    55   32   58 1
    56   32   59 1
    57   33   37 1
    58   33   34 1
    59   33   69 1
    60   34   35 1
    61   34   60 1
    62   34   61 1
    63   35   36 1
    64   35   62 1
    65   35   63 1
    66   36   37 1
    67   36   64 1
    68   36   65 1
    69   37   38 1
    70   37   39 1
    71   39   40 1
    72   39   66 1
    73   39   67 1
    74   40   68 1
@<TRIPOS>MOLECULE
CHEMBL255443
   56    59     0     0     0
SMALL
USER_CHARGES

@<TRIPOS>ATOM
      1 C1          0.0103    1.5131    0.0146 C.3       1 <0>        -0.1505
      2 C2          0.0186   -0.0168    0.0049 C.3       1 <0>        -0.0882
      3 C3         -1.4216   -0.5345    0.0125 C.3       1 <0>        -0.1343
      4 C4         -1.4098   -2.0657   -0.0322 C.3       1 <0>         0.1397
      5 N1         -0.5834   -2.5648    1.0754 N.pl3     1 <0>        -0.6790
      6 C5          0.7901   -2.0618    1.2143 C.3       1 <0>         0.1444
      7 C6          0.7536   -0.5306    1.2450 C.3       1 <0>        -0.1345
      8 C7         -1.0947   -3.5009    1.9807 C.ar      1 <0>         0.1511
      9 C8         -0.9465   -4.8549    1.7349 C.ar      1 <0>        -0.0815
     10 C9         -1.4576   -5.7855    2.6407 C.ar      1 <0>        -0.0981
     11 C10        -2.1162   -5.3480    3.7913 C.ar      1 <0>        -0.0795
     12 C11        -2.2622   -3.9980    4.0326 C.ar      1 <0>        -0.1248
     13 C12        -1.7498   -3.0700    3.1360 C.ar      1 <0>         0.1577
     14 N2         -1.8950   -1.7017    3.3876 N.am      1 <0>        -0.6534
     15 C13        -2.0535   -1.2620    4.6517 C.2       1 <0>         0.6069
     16 O1         -1.9699   -2.0417    5.5820 O.2       1 <0>        -0.4861
     17 C14        -2.3274    0.1594    4.9065 C.2       1 <0>        -0.0531
     18 C15        -2.5020    0.7302    6.1359 C.2       1 <0>        -0.1050
     19 C16        -2.7384    2.0931    5.9245 C.2       1 <0>        -0.1294
     20 C17        -2.6978    2.2978    4.5630 C.2       1 <0>         0.0869
     21 O2         -2.4425    1.1182    3.9679 O.3       1 <0>        -0.1463
     22 C18        -2.8881    3.5508    3.8963 C.1       1 <0>         0.2747
     23 N3         -3.0390    4.5447    3.3674 N.1       1 <0>        -0.3462
     24 C19        -1.3022   -7.2319    2.3821 C.2       1 <0>        -0.0388
     25 C20        -0.0922   -7.7496    2.3791 C.2       1 <0>        -0.1951
     26 C21         0.1726   -9.2050    2.1218 C.3       1 <0>         0.0375
     27 N4         -1.0526   -9.9897    2.3133 N.4       1 <0>        -0.5085
     28 C22        -2.1312   -9.3982    1.5060 C.3       1 <0>        -0.0037
     29 C23        -2.5329   -8.0612    2.1379 C.3       1 <0>        -0.1161
     30 H1          1.0360    1.8820    0.0080 H         1 <0>         0.0573
     31 H2         -0.5132    1.8792   -0.8686 H         1 <0>         0.0572
     32 H3         -0.4977    1.8681    0.9113 H         1 <0>         0.0519
     33 H4          0.5270   -0.3716   -0.8916 H         1 <0>         0.0735
     34 H5         -1.9233   -0.2009    0.9208 H         1 <0>         0.0565
     35 H6         -1.9513   -0.1492   -0.8587 H         1 <0>         0.0760
     36 H7         -2.4274   -2.4422    0.0728 H         1 <0>         0.0692
     37 H8         -0.9902   -2.4004   -0.9809 H         1 <0>         0.0584
     38 H9          1.2241   -2.4356    2.1417 H         1 <0>         0.0681
     39 H10         1.3891   -2.3961    0.3673 H         1 <0>         0.0564
     40 H11         1.7722   -0.1425    1.2510 H         1 <0>         0.0737
     41 H12         0.2314   -0.1970    2.1417 H         1 <0>         0.0594
     42 H13        -0.4369   -5.1906    0.8438 H         1 <0>         0.1298
     43 H14        -2.5120   -6.0674    4.4928 H         1 <0>         0.1282
     44 H15        -2.7727   -3.6620    4.9230 H         1 <0>         0.1532
     45 H16        -1.8817   -1.0693    2.6522 H         1 <0>         0.4199
     46 H17        -2.4650    0.2250    7.0897 H         1 <0>         0.1789
     47 H18        -2.9188    2.8405    6.6830 H         1 <0>         0.1791
     48 H19         0.7479   -7.0983    2.5698 H         1 <0>         0.1504
     49 H20         0.5257   -9.3318    1.0984 H         1 <0>         0.1394
     50 H21         0.9391   -9.5593    2.8111 H         1 <0>         0.1423
     51 H22        -0.8935  -10.9415    2.0186 H         1 <0>         0.4351
     52 H23        -1.7785   -9.2344    0.4877 H         1 <0>         0.1344
     53 H24        -2.9901  -10.0692    1.4949 H         1 <0>         0.1396
     54 H25        -3.0427   -8.2418    3.0842 H         1 <0>         0.1083
     55 H26        -3.2014   -7.5284    1.4616 H         1 <0>         0.1253
     56 H27        -1.3137   -9.9757    3.2878 H         1 <0>         0.4315
@<TRIPOS>BOND
     1    1    2 1
     2    1   30 1
     3    1   31 1
     4    1   32 1
     5    2    7 1
     6    2    3 1
     7    2   33 1
     8    3    4 1
     9    3   34 1
    10    3   35 1
    11    4    5 1
    12    4   36 1
    13    4   37 1
    14    5    6 1
    15    5    8 1
    16    6    7 1
    17    6   38 1
    18    6   39 1
    19    7   40 1
    20    7   41 1
    21    8   13 ar
    22    8    9 ar
    23    9   10 ar
    24    9   42 1
    25   10   11 ar
    26   10   24 1
    27   11   12 ar
    28   11   43 1
    29   12   13 ar
    30   12   44 1
    31   13   14 1
    32   14   15 am
    33   14   45 1
    34   15   16 2
    35   15   17 1
    36   17   21 1
    37   17   18 2
    38   18   19 1
    39   18   46 1
    40   19   20 2
    41   19   47 1
    42   20   21 1
    43   20   22 1
    44   22   23 3
    45   24   29 1
    46   24   25 2
    47   25   26 1
    48   25   48 1
    49   26   27 1
    50   26   49 1
    51   26   50 1
    52   27   28 1
    53   27   51 1
    54   27   56 1
    55   28   29 1
    56   28   52 1
    57   28   53 1
    58   29   54 1
    59   29   55 1
@<TRIPOS>MOLECULE
CHEMBL1088599
   66    70     0     0     0
SMALL
USER_CHARGES

@<TRIPOS>ATOM
      1 C1         -0.5780    2.0095   -1.3663 C.ar      1 <0>        -0.0768
      2 C2          0.6100    2.6483   -1.0647 C.ar      1 <0>        -0.1057
      3 C3          1.7656    1.9100   -0.8807 C.ar      1 <0>        -0.0047
      4 C4          1.7317    0.5321   -0.9983 C.ar      1 <0>        -0.0933
      5 C5          0.5424   -0.1068   -1.2997 C.ar      1 <0>        -0.0045
      6 C6         -0.6124    0.6327   -1.4840 C.ar      1 <0>        -0.1072
      7 Cl1         0.4990   -1.8359   -1.4480 Cl        1 <0>        -0.0513
      8 C7          2.9901   -0.2726   -0.7985 C.3       1 <0>         0.1141
      9 O1          3.1118   -0.6324    0.5791 O.3       1 <0>        -0.2900
     10 C8          4.1990   -1.3649    0.9310 C.ar      1 <0>         0.2369
     11 C9          4.3792   -1.7578    2.2647 C.ar      1 <0>         0.3840
     12 N1          5.4414   -2.4729    2.6062 N.ar      1 <0>        -0.4761
     13 C10         6.3314   -2.8161    1.6905 C.ar      1 <0>         0.0999
     14 C11         6.1556   -2.4278    0.3663 C.ar      1 <0>         0.0499
     15 N2          5.0859   -1.7131    0.0169 N.ar      1 <0>        -0.4541
     16 C12         7.1550   -2.8137   -0.6574 C.ar      1 <0>         0.0222
     17 C13         8.2691   -3.5713   -0.2936 C.ar      1 <0>        -0.1065
     18 C14         9.1980   -3.9302   -1.2439 C.ar      1 <0>        -0.0412
     19 C15         9.0252   -3.5358   -2.5731 C.ar      1 <0>        -0.1377
     20 C16         7.9094   -2.7773   -2.9364 C.ar      1 <0>        -0.1415
     21 C17         6.9786   -2.4242   -1.9858 C.ar      1 <0>        -0.1146
     22 C18        10.0217   -3.9200   -3.5934 C.2       1 <0>         0.5734
     23 O2         11.1361   -4.2677   -3.2541 O.2       1 <0>        -0.4993
     24 N3          9.6955   -3.8852   -4.9007 N.am      1 <0>        -0.6088
     25 C19        10.5320   -4.3816   -6.0085 C.3       1 <0>         0.1004
     26 C20        10.0538   -3.5907   -7.2517 C.3       1 <0>        -0.1321
     27 C21         8.5271   -3.4952   -6.9919 C.3       1 <0>        -0.1474
     28 C22         8.4438   -3.3515   -5.4575 C.3       1 <0>         0.1085
     29 H1          8.3381   -2.3000   -5.1907 H         1 <0>         0.1063
     30 C23         7.2538   -4.1497   -4.9213 C.3       1 <0>        -0.0530
     31 N4          6.0055   -3.4494   -5.2521 N.4       1 <0>        -0.3906
     32 C24         5.7643   -3.4971   -6.7170 C.3       1 <0>        -0.0166
     33 C25         4.2380   -3.2570   -6.8329 C.3       1 <0>        -0.1452
     34 C26         3.6740   -4.0226   -5.6140 C.3       1 <0>        -0.1437
     35 C27         4.8539   -4.1391   -4.6312 C.3       1 <0>        -0.0094
     36 N5          3.4448   -1.3972    3.2281 N.pl3     1 <0>        -0.8199
     37 Cl2         3.2578    2.7127   -0.5030 Cl        1 <0>        -0.0439
     38 H2         -1.4806    2.5859   -1.5058 H         1 <0>         0.1500
     39 H3          0.6364    3.7241   -0.9730 H         1 <0>         0.1474
     40 H4         -1.5410    0.1340   -1.7193 H         1 <0>         0.1466
     41 H5          2.9443   -1.1757   -1.4072 H         1 <0>         0.0811
     42 H6          3.8532    0.3228   -1.0962 H         1 <0>         0.0847
     43 H7          7.1964   -3.3986    1.9712 H         1 <0>         0.1761
     44 H8          8.4027   -3.8757    0.7340 H         1 <0>         0.1444
     45 H9         10.0604   -4.5161   -0.9620 H         1 <0>         0.1479
     46 H10         7.7750   -2.4721   -3.9636 H         1 <0>         0.1322
     47 H11         6.1138   -1.8417   -2.2673 H         1 <0>         0.1383
     48 H12        11.5842   -4.1773   -5.8104 H         1 <0>         0.0946
     49 H13        10.3731   -5.4501   -6.1544 H         1 <0>         0.0790
     50 H14        10.5076   -2.6001   -7.2828 H         1 <0>         0.0870
     51 H15        10.2603   -4.1423   -8.1688 H         1 <0>         0.0996
     52 H16         8.1057   -2.6203   -7.4869 H         1 <0>         0.0975
     53 H17         8.0228   -4.4047   -7.3183 H         1 <0>         0.0902
     54 H18         7.2462   -5.1403   -5.3759 H         1 <0>         0.1397
     55 H19         7.3398   -4.2472   -3.8390 H         1 <0>         0.1563
     56 H20         6.3177   -2.7066   -7.2239 H         1 <0>         0.1397
     57 H21         6.0317   -4.4742   -7.1193 H         1 <0>         0.1375
     58 H22         4.0082   -2.1939   -6.7608 H         1 <0>         0.0990
     59 H23         3.8515   -3.6740   -7.7628 H         1 <0>         0.1180
     60 H24         2.8573   -3.4616   -5.1597 H         1 <0>         0.1058
     61 H25         3.3326   -5.0132   -5.9143 H         1 <0>         0.1046
     62 H26         5.0957   -5.1887   -4.4640 H         1 <0>         0.1321
     63 H27         4.5989   -3.6590   -3.6864 H         1 <0>         0.1333
     64 H28         2.6676   -0.8736    2.9779 H         1 <0>         0.4203
     65 H29         3.5697   -1.6693    4.1508 H         1 <0>         0.4141
     66 H30         6.0491   -2.4920   -4.9367 H         1 <0>         0.4229
@<TRIPOS>BOND
     1    1    6 ar
     2    1    2 ar
     3    1   38 1
     4    2    3 ar
     5    2   39 1
     6    3    4 ar
     7    3   37 1
     8    4    5 ar
     9    4    8 1
    10    5    6 ar
    11    5    7 1
    12    6   40 1
    13    8    9 1
    14    8   41 1
    15    8   42 1
    16    9   10 1
    17   10   15 ar
    18   10   11 ar
    19   11   12 ar
    20   11   36 1
    21   12   13 ar
    22   13   14 ar
    23   13   43 1
    24   14   15 ar
    25   14   16 1
    26   16   21 ar
    27   16   17 ar
    28   17   18 ar
    29   17   44 1
    30   18   19 ar
    31   18   45 1
    32   19   20 ar
    33   19   22 1
    34   20   21 ar
    35   20   46 1
    36   21   47 1
    37   22   23 2
    38   22   24 am
    39   24   28 1
    40   24   25 1
    41   25   26 1
    42   25   48 1
    43   25   49 1
    44   26   27 1
    45   26   50 1
    46   26   51 1
    47   27   28 1
    48   27   52 1
    49   27   53 1
    50   28   29 1
    51   28   30 1
    52   30   31 1
    53   30   54 1
    54   30   55 1
    55   31   35 1
    56   31   32 1
    57   31   66 1
    58   32   33 1
    59   32   56 1
    60   32   57 1
    61   33   34 1
    62   33   58 1
    63   33   59 1
    64   34   35 1
    65   34   60 1
    66   34   61 1
    67   35   62 1
    68   35   63 1
    69   36   64 1
    70   36   65 1
@<TRIPOS>MOLECULE
CHEMBL196363
   44    47     0     0     0
SMALL
USER_CHARGES

@<TRIPOS>ATOM
      1 C1          0.5811    1.1696    0.6372 C.3       1 <0>        -0.1157
      2 C2         -0.1481   -0.0908    1.0254 C.ar      1 <0>        -0.0663
      3 C3         -1.2605   -0.4937    0.3092 C.ar      1 <0>        -0.1334
      4 C4         -1.9321   -1.6496    0.6618 C.ar      1 <0>        -0.0955
      5 C5         -1.4936   -2.4059    1.7314 C.ar      1 <0>        -0.1234
      6 C6         -0.3771   -2.0042    2.4524 C.ar      1 <0>         0.1629
      7 C7          0.2984   -0.8452    2.0924 C.ar      1 <0>        -0.1454
      8 N1          0.0694   -2.7678    3.5367 N.am      1 <0>        -0.6811
      9 C8         -0.0349   -4.1111    3.5032 C.2       1 <0>         0.7038
     10 O1         -0.4293   -4.6654    2.4954 O.2       1 <0>        -0.5504
     11 N2          0.2980   -4.8401    4.5868 N.am      1 <0>        -0.6831
     12 C9          0.2939   -6.2381    4.5181 C.ar      1 <0>         0.1729
     13 C10         0.6767   -6.8758    3.3444 C.ar      1 <0>        -0.1146
     14 C11         0.6736   -8.2529    3.2739 C.ar      1 <0>        -0.0776
     15 C12         0.2862   -9.0056    4.3821 C.ar      1 <0>        -0.0660
     16 C13        -0.0970   -8.3630    5.5589 C.ar      1 <0>        -0.0838
     17 C14        -0.0874   -6.9857    5.6255 C.ar      1 <0>        -0.1456
     18 C15         0.2814  -10.4861    4.3092 C.2       1 <0>        -0.0391
     19 C16         1.4078  -11.1641    3.9875 C.2       1 <0>        -0.1609
     20 S1          0.8942  -12.8705    4.0339 S.3       1 <0>         0.1172
     21 C17        -0.8063  -12.6401    4.4800 C.ar      1 <0>         0.1481
     22 C18        -0.9363  -11.2400    4.5887 C.ar      1 <0>        -0.2423
     23 C19        -2.2287  -10.7734    4.9480 C.ar      1 <0>         0.4931
     24 N3         -3.1976  -11.6508    5.1562 N.ar      1 <0>        -0.5867
     25 C20        -3.0036  -12.9520    5.0409 C.ar      1 <0>         0.3643
     26 N4         -1.8280  -13.4443    4.7011 N.ar      1 <0>        -0.5212
     27 N5         -2.4720   -9.4178    5.0792 N.pl3     1 <0>        -0.8323
     28 H1          1.3565    0.9311   -0.0908 H         1 <0>         0.0725
     29 H2         -0.1233    1.8767    0.1993 H         1 <0>         0.0691
     30 H3          1.0376    1.6125    1.5224 H         1 <0>         0.0667
     31 H4         -1.6056    0.0961   -0.5272 H         1 <0>         0.1242
     32 H5         -2.8007   -1.9614    0.1008 H         1 <0>         0.1269
     33 H6         -2.0188   -3.3086    2.0066 H         1 <0>         0.1329
     34 H7          1.1696   -0.5323    2.6487 H         1 <0>         0.1250
     35 H8          0.4540   -2.3304    4.3124 H         1 <0>         0.4089
     36 H9          0.5405   -4.3959    5.4144 H         1 <0>         0.4103
     37 H10         0.9766   -6.2924    2.4865 H         1 <0>         0.1399
     38 H11         0.9705   -8.7480    2.3612 H         1 <0>         0.1326
     39 H12        -0.3975   -8.9436    6.4186 H         1 <0>         0.1318
     40 H13        -0.3802   -6.4876    6.5379 H         1 <0>         0.1322
     41 H14         2.3850  -10.7661    3.7572 H         1 <0>         0.1974
     42 H15        -3.8269  -13.6272    5.2217 H         1 <0>         0.2093
     43 H16        -1.8866   -8.7760    4.6476 H         1 <0>         0.4155
     44 H17        -3.2279   -9.1092    5.6028 H         1 <0>         0.4071
@<TRIPOS>BOND
     1    1    2 1
     2    1   28 1
     3    1   29 1
     4    1   30 1
     5    2    7 ar
     6    2    3 ar
     7    3    4 ar
     8    3   31 1
     9    4    5 ar
    10    4   32 1
    11    5    6 ar
    12    5   33 1
    13    6    7 ar
    14    6    8 1
    15    7   34 1
    16    8    9 am
    17    8   35 1
    18    9   10 2
    19    9   11 am
    20   11   12 1
    21   11   36 1
    22   12   17 ar
    23   12   13 ar
    24   13   14 ar
    25   13   37 1
    26   14   15 ar
    27   14   38 1
    28   15   16 ar
    29   15   18 1
    30   16   17 ar
    31   16   39 1
    32   17   40 1
    33   18   22 1
    34   18   19 2
    35   19   20 1
    36   19   41 1
    37   20   21 1
    38   21   26 ar
    39   21   22 ar
    40   22   23 ar
    41   23   24 ar
    42   23   27 1
    43   24   25 ar
    44   25   26 ar
    45   25   42 1
    46   27   43 1
    47   27   44 1
@<TRIPOS>MOLECULE
CHEMBL461573
   42    44     0     0     0
SMALL
USER_CHARGES

@<TRIPOS>ATOM
      1 C1          0.6802    1.3440   -0.0919 C.3       1 <0>        -0.1178
      2 C2          0.0390   -0.0171   -0.0060 C.ar      1 <0>        -0.0862
      3 C3         -0.5604   -0.5695   -1.1240 C.ar      1 <0>        -0.0897
      4 C4         -1.1513   -1.8186   -1.0538 C.ar      1 <0>        -0.0857
      5 C5         -1.1464   -2.5216    0.1331 C.ar      1 <0>        -0.0617
      6 C6         -0.5434   -1.9701    1.2648 C.ar      1 <0>        -0.1325
      7 C7          0.0560   -0.7119    1.1856 C.ar      1 <0>        -0.0932
      8 C8         -0.5343   -2.7177    2.5400 C.2       1 <0>         0.5651
      9 O1         -1.0527   -3.8153    2.6047 O.2       1 <0>        -0.5106
     10 N1          0.0487   -2.1824    3.6308 N.am      1 <0>        -0.6709
     11 C9         -0.0268   -2.8452    4.8608 C.ar      1 <0>         0.1468
     12 C10         0.0040   -4.2346    4.9045 C.ar      1 <0>        -0.0753
     13 C11        -0.0707   -4.8946    6.1159 C.ar      1 <0>        -0.0964
     14 C12        -0.1765   -4.1783    7.2927 C.ar      1 <0>         0.0065
     15 C13        -0.2078   -2.7818    7.2592 C.ar      1 <0>        -0.1110
     16 C14        -0.1266   -2.1165    6.0351 C.ar      1 <0>        -0.1010
     17 C15        -0.3214   -2.0123    8.5153 C.2       1 <0>         0.5512
     18 O2         -0.3878   -2.5942    9.5808 O.2       1 <0>        -0.4742
     19 N2         -0.3513   -0.6653    8.4800 N.am      1 <0>        -0.6141
     20 C16        -0.4587    0.0623    9.6677 C.2       1 <0>         0.0158
     21 C17        -0.5116    1.4125    9.8614 C.2       1 <0>        -0.0145
     22 N3         -0.6151    1.8290   11.1085 N.2       1 <0>        -0.4936
     23 C18        -0.6643    0.9857   12.1080 C.2       1 <0>        -0.0305
     24 S1         -0.5727   -0.5158   11.3533 S.3       1 <0>         0.2227
     25 Cl1        -0.2712   -5.0128    8.8120 Cl        1 <0>        -0.0219
     26 C19        -1.8023   -2.4122   -2.2765 C.3       1 <0>        -0.1183
     27 H1          1.7259    1.2355   -0.3799 H         1 <0>         0.0749
     28 H2          0.1587    1.9450   -0.8369 H         1 <0>         0.0709
     29 H3          0.6199    1.8360    0.8789 H         1 <0>         0.0692
     30 H4         -0.5673   -0.0231   -2.0556 H         1 <0>         0.1300
     31 H5         -1.6083   -3.4964    0.1868 H         1 <0>         0.1381
     32 H6          0.5281   -0.2815    2.0564 H         1 <0>         0.1248
     33 H7          0.5207   -1.3377    3.5633 H         1 <0>         0.4141
     34 H8          0.0863   -4.7999    3.9880 H         1 <0>         0.1567
     35 H9         -0.0466   -5.9740    6.1431 H         1 <0>         0.1499
     36 H10        -0.1458   -1.0371    6.0029 H         1 <0>         0.1381
     37 H11        -0.2983   -0.2011    7.6299 H         1 <0>         0.4189
     38 H12        -0.4705    2.1055    9.0342 H         1 <0>         0.1707
     39 H13        -0.7476    1.2012   13.1630 H         1 <0>         0.2173
     40 H14        -1.0670   -2.9922   -2.8342 H         1 <0>         0.0754
     41 H15        -2.6226   -3.0621   -1.9720 H         1 <0>         0.0712
     42 H16        -2.1880   -1.6116   -2.9076 H         1 <0>         0.0707
@<TRIPOS>BOND
     1    1    2 1
     2    1   27 1
     3    1   28 1
     4    1   29 1
     5    2    7 ar
     6    2    3 ar
     7    3    4 ar
     8    3   30 1
     9    4    5 ar
    10    4   26 1
    11    5    6 ar
    12    5   31 1
    13    6    7 ar
    14    6    8 1
    15    7   32 1
    16    8    9 2
    17    8   10 am
    18   10   11 1
    19   10   33 1
    20   11   16 ar
    21   11   12 ar
    22   12   13 ar
    23   12   34 1
    24   13   14 ar
    25   13   35 1
    26   14   15 ar
    27   14   25 1
    28   15   16 ar
    29   15   17 1
    30   16   36 1
    31   17   18 2
    32   17   19 am
    33   19   20 1
    34   19   37 1
    35   20   24 1
    36   20   21 2
    37   21   22 1
    38   21   38 1
    39   22   23 2
    40   23   24 1
    41   23   39 1
    42   26   40 1
    43   26   41 1
    44   26   42 1
@<TRIPOS>MOLECULE
CHEMBL526639
   41    44     0     0     0
SMALL
USER_CHARGES

@<TRIPOS>ATOM
      1 C1         -0.0184    1.5028    0.0103 C.3       1 <0>        -0.1254
      2 C2          0.0021   -0.0041    0.0020 C.ar      1 <0>        -0.0412
      3 C3          0.0057   -0.6865   -1.1992 C.ar      1 <0>        -0.1247
      4 C4          0.0244   -2.0665   -1.2155 C.ar      1 <0>        -0.0782
      5 C5          0.0393   -2.7810   -0.0156 C.ar      1 <0>        -0.1400
      6 C6          0.0357   -2.0971    1.1986 C.ar      1 <0>        -0.0392
      7 C7          0.0230   -0.7059    1.2067 C.ar      1 <0>        -0.0595
      8 C8          0.0253    0.0296    2.4952 C.ar      1 <0>        -0.0464
      9 C9          0.9442    1.0718    2.6991 C.ar      1 <0>        -0.0819
     10 C10         0.9685    1.7620    3.8698 C.ar      1 <0>        -0.1110
     11 C11         0.0650    1.4333    4.8922 C.ar      1 <0>        -0.0214
     12 C12         0.0490    2.1170    6.1215 C.ar      1 <0>        -0.1563
     13 C13        -0.8570    1.7425    7.0669 C.ar      1 <0>         0.0786
     14 N1         -1.7186    0.7560    6.8598 N.ar      1 <0>        -0.4878
     15 C14        -1.7616    0.0747    5.7390 C.ar      1 <0>         0.1497
     16 C15        -0.8691    0.3819    4.6980 C.ar      1 <0>        -0.1114
     17 C16        -0.8812   -0.3141    3.4812 C.ar      1 <0>        -0.0690
     18 C17         0.0583   -4.2594   -0.0335 C.2       1 <0>         0.5644
     19 O1          0.0712   -4.8798    1.0117 O.2       1 <0>        -0.5312
     20 N2          0.0613   -4.9191   -1.2088 N.am      1 <0>        -0.6992
     21 C18         0.0801   -6.3839   -1.2265 C.3       1 <0>         0.0770
     22 C19         1.0206   -7.0663   -2.2219 C.3       1 <0>        -0.1919
     23 C20        -0.4903   -7.0828   -2.4623 C.3       1 <0>        -0.1877
     24 H1          1.0042    1.8801    0.0026 H         1 <0>         0.0781
     25 H2         -0.5455    1.8639   -0.8728 H         1 <0>         0.0723
     26 H3         -0.5286    1.8543    0.9071 H         1 <0>         0.0744
     27 H4         -0.0065   -0.1378   -2.1294 H         1 <0>         0.1337
     28 H5          0.0271   -2.5946   -2.1576 H         1 <0>         0.1267
     29 H6          0.0471   -2.6447    2.1294 H         1 <0>         0.1399
     30 H7          1.6413    1.3282    1.9151 H         1 <0>         0.1307
     31 H8          1.6813    2.5607    4.0130 H         1 <0>         0.1348
     32 H9          0.7421    2.9231    6.3120 H         1 <0>         0.1392
     33 H10        -0.8740    2.2638    8.0126 H         1 <0>         0.1544
     34 H11        -2.4815   -0.7211    5.6170 H         1 <0>         0.1649
     35 H12        -1.5885   -1.1136    3.3171 H         1 <0>         0.1370
     36 H13         0.0509   -4.4241   -2.0429 H         1 <0>         0.4012
     37 H14        -0.0685   -6.8677   -0.2612 H         1 <0>         0.1401
     38 H15         1.6253   -6.4254   -2.8635 H         1 <0>         0.0976
     39 H16         1.4911   -7.9992   -1.9114 H         1 <0>         0.1046
     40 H17        -1.0139   -8.0266   -2.3099 H         1 <0>         0.1060
     41 H18        -0.8796   -6.4528   -3.2620 H         1 <0>         0.0979
@<TRIPOS>BOND
     1    1    2 1
     2    1   24 1
     3    1   25 1
     4    1   26 1
     5    2    7 ar
     6    2    3 ar
     7    3    4 ar
     8    3   27 1
     9    4    5 ar
    10    4   28 1
    11    5    6 ar
    12    5   18 1
    13    6    7 ar
    14    6   29 1
    15    7    8 1
    16    8   17 ar
    17    8    9 ar
    18    9   10 ar
    19    9   30 1
    20   10   11 ar
    21   10   31 1
    22   11   16 ar
    23   11   12 ar
    24   12   13 ar
    25   12   32 1
    26   13   14 ar
    27   13   33 1
    28   14   15 ar
    29   15   16 ar
    30   15   34 1
    31   16   17 ar
    32   17   35 1
    33   18   19 2
    34   18   20 am
    35   20   21 1
    36   20   36 1
    37   21   23 1
    38   21   22 1
    39   21   37 1
    40   22   23 1
    41   22   38 1
    42   22   39 1
    43   23   40 1
    44   23   41 1
@<TRIPOS>MOLECULE
CHEMBL438533
   58    61     0     0     0
SMALL
USER_CHARGES

@<TRIPOS>ATOM
      1 C1          0.0074    1.5130    0.0128 C.3       1 <0>        -0.1504
      2 C2          0.0158   -0.0170    0.0033 C.3       1 <0>        -0.0884
      3 C3         -1.4243   -0.5348    0.0120 C.3       1 <0>        -0.1341
      4 C4         -1.4125   -2.0660   -0.0325 C.3       1 <0>         0.1401
      5 N1         -0.5851   -2.5649    1.0744 N.pl3     1 <0>        -0.6795
      6 C5          0.7884   -2.0618    1.2122 C.3       1 <0>         0.1446
      7 C6          0.7519   -0.5306    1.2428 C.3       1 <0>        -0.1342
      8 C7         -1.0956   -3.5009    1.9802 C.ar      1 <0>         0.1549
      9 C8         -0.9481   -4.8582    1.7352 C.ar      1 <0>        -0.0921
     10 C9         -1.4529   -5.7811    2.6319 C.ar      1 <0>        -0.1091
     11 C10        -2.1057   -5.3559    3.7744 C.ar      1 <0>        -0.0963
     12 C11        -2.2574   -4.0054    4.0267 C.ar      1 <0>        -0.1221
     13 C12        -1.7495   -3.0720    3.1353 C.ar      1 <0>         0.1493
     14 N2         -1.8968   -1.7032    3.3918 N.am      1 <0>        -0.6532
     15 C13        -2.0552   -1.2680    4.6575 C.2       1 <0>         0.6069
     16 O1         -1.9696   -2.0506    5.5851 O.2       1 <0>        -0.4886
     17 C14        -2.3312    0.1522    4.9172 C.2       1 <0>        -0.0525
     18 C15        -2.5058    0.7186    6.1485 C.2       1 <0>        -0.1061
     19 C16        -2.7446    2.0818    5.9419 C.2       1 <0>        -0.1295
     20 C17        -2.7052    2.2911    4.5810 C.2       1 <0>         0.0866
     21 O2         -2.4485    1.1139    3.9819 O.3       1 <0>        -0.1461
     22 C18        -2.8981    3.5459    3.9186 C.1       1 <0>         0.2746
     23 N3         -3.0510    4.5414    3.3930 N.1       1 <0>        -0.3462
     24 C19        -1.2918   -7.2552    2.3633 C.3       1 <0>        -0.0502
     25 C20        -0.5075   -7.9017    3.5088 C.3       1 <0>        -0.1427
     26 C21        -0.4163   -9.4103    3.2695 C.3       1 <0>        -0.0073
     27 N4         -1.7666   -9.9832    3.2145 N.4       1 <0>        -0.5059
     28 C22        -2.5004   -9.4204    2.0747 C.3       1 <0>        -0.0073
     29 C23        -2.6718   -7.9122    2.2680 C.3       1 <0>        -0.1424
     30 H1          1.0331    1.8819    0.0054 H         1 <0>         0.0572
     31 H2         -0.5168    1.8790   -0.8699 H         1 <0>         0.0571
     32 H3         -0.4999    1.8679    0.9099 H         1 <0>         0.0517
     33 H4          0.5236   -0.3718   -0.8936 H         1 <0>         0.0735
     34 H5         -1.9254   -0.2011    0.9207 H         1 <0>         0.0562
     35 H6         -1.9548   -0.1496   -0.8588 H         1 <0>         0.0757
     36 H7         -2.4299   -2.4425    0.0732 H         1 <0>         0.0688
     37 H8         -0.9936   -2.4007   -0.9815 H         1 <0>         0.0582
     38 H9          1.2232   -2.4355    2.1393 H         1 <0>         0.0679
     39 H10         1.3868   -2.3961    0.3647 H         1 <0>         0.0563
     40 H11         1.7704   -0.1424    1.2480 H         1 <0>         0.0734
     41 H12         0.2304   -0.1970    2.1399 H         1 <0>         0.0590
     42 H13        -0.4391   -5.1938    0.8437 H         1 <0>         0.1286
     43 H14        -2.4985   -6.0813    4.4715 H         1 <0>         0.1225
     44 H15        -2.7678   -3.6769    4.9200 H         1 <0>         0.1501
     45 H16        -1.8850   -1.0684    2.6585 H         1 <0>         0.4194
     46 H17        -2.4674    0.2103    7.1007 H         1 <0>         0.1786
     47 H18        -2.9254    2.8264    6.7029 H         1 <0>         0.1788
     48 H19        -0.7544   -7.3983    1.4258 H         1 <0>         0.0948
     49 H20         0.4960   -7.4780    3.5474 H         1 <0>         0.1141
     50 H21        -1.0195   -7.7132    4.4524 H         1 <0>         0.0915
     51 H22         0.0961   -9.5978    2.3258 H         1 <0>         0.1307
     52 H23         0.1417   -9.8737    4.0831 H         1 <0>         0.1339
     53 H24        -1.7020  -10.9847    3.1102 H         1 <0>         0.4317
     54 H25        -1.9436   -9.6076    1.1565 H         1 <0>         0.1307
     55 H26        -3.4811   -9.8913    2.0062 H         1 <0>         0.1338
     56 H27        -3.2287   -7.7238    3.1858 H         1 <0>         0.0912
     57 H28        -3.2153   -7.4960    1.4198 H         1 <0>         0.1139
     58 H29        -2.2576   -9.7671    4.0691 H         1 <0>         0.4279
@<TRIPOS>BOND
     1    1    2 1
     2    1   30 1
     3    1   31 1
     4    1   32 1
     5    2    7 1
     6    2    3 1
     7    2   33 1
     8    3    4 1
     9    3   34 1
    10    3   35 1
    11    4    5 1
    12    4   36 1
    13    4   37 1
    14    5    6 1
    15    5    8 1
    16    6    7 1
    17    6   38 1
    18    6   39 1
    19    7   40 1
    20    7   41 1
    21    8   13 ar
    22    8    9 ar
    23    9   10 ar
    24    9   42 1
    25   10   11 ar
    26   10   24 1
    27   11   12 ar
    28   11   43 1
    29   12   13 ar
    30   12   44 1
    31   13   14 1
    32   14   15 am
    33   14   45 1
    34   15   16 2
    35   15   17 1
    36   17   21 1
    37   17   18 2
    38   18   19 1
    39   18   46 1
    40   19   20 2
    41   19   47 1
    42   20   21 1
    43   20   22 1
    44   22   23 3
    45   24   29 1
    46   24   25 1
    47   24   48 1
    48   25   26 1
    49   25   49 1
    50   25   50 1
    51   26   27 1
    52   26   51 1
    53   26   52 1
    54   27   28 1
    55   27   53 1
    56   27   58 1
    57   28   29 1
    58   28   54 1
    59   28   55 1
    60   29   56 1
    61   29   57 1
@<TRIPOS>MOLECULE
CHEMBL504075
   45    47     0     0     0
SMALL
USER_CHARGES

@<TRIPOS>ATOM
      1 C1         -1.7795   -4.4227   -3.4639 C.3       1 <0>        -0.1182
      2 C2         -1.1297   -3.8290   -2.2407 C.ar      1 <0>        -0.0911
      3 C3         -0.5376   -2.5802   -2.3108 C.ar      1 <0>        -0.0902
      4 C4          0.0614   -2.0281   -1.1926 C.ar      1 <0>        -0.1213
      5 C5          0.0720   -2.7204    0.0008 C.ar      1 <0>        -0.0923
      6 C6         -0.5238   -3.9801    0.0785 C.ar      1 <0>        -0.1360
      7 C7         -1.1315   -4.5291   -1.0522 C.ar      1 <0>        -0.0570
      8 C8         -0.5158   -4.7277    1.3537 C.2       1 <0>         0.5623
      9 O1         -1.0355   -5.8247    1.4184 O.2       1 <0>        -0.5138
     10 N1          0.0677   -4.1931    2.4446 N.am      1 <0>        -0.6705
     11 C9         -0.0087   -4.8554    3.6739 C.ar      1 <0>         0.1489
     12 C10        -0.1139   -4.1267    4.8519 C.ar      1 <0>        -0.1388
     13 C11        -0.1891   -4.7837    6.0640 C.ar      1 <0>        -0.0937
     14 C12        -0.1592   -6.1658    6.1062 C.ar      1 <0>        -0.1246
     15 C13        -0.0540   -6.8941    4.9356 C.ar      1 <0>        -0.0774
     16 C14         0.0149   -6.2432    3.7193 C.ar      1 <0>        -0.1058
     17 C15        -0.0208   -8.3999    4.9864 C.3       1 <0>         0.1924
     18 H1          0.4101   -8.7852    4.0623 H         1 <0>         0.0953
     19 C16        -1.4446   -8.9363    5.1477 C.3       1 <0>        -0.1670
     20 N2          0.7956   -8.8323    6.1234 N.pl3     1 <0>        -0.7040
     21 C17         1.4065  -10.0807    6.1055 C.ar      1 <0>         0.3822
     22 C18         1.2484  -10.9197    5.0048 C.ar      1 <0>        -0.0080
     23 N3          1.8300  -12.1039    4.9909 N.ar      1 <0>        -0.3827
     24 C19         2.5626  -12.4951    6.0200 C.ar      1 <0>        -0.0006
     25 C20         2.7224  -11.6651    7.1152 C.ar      1 <0>         0.1809
     26 N4          2.1462  -10.4740    7.1342 N.ar      1 <0>        -0.5029
     27 Cl1         3.6848  -12.1844    8.4635 Cl        1 <0>        -0.0128
     28 H2         -2.8272   -4.1242   -3.5000 H         1 <0>         0.0749
     29 H3         -1.2684   -4.0637   -4.3572 H         1 <0>         0.0705
     30 H4         -1.7128   -5.5098   -3.4193 H         1 <0>         0.0708
     31 H5         -0.5429   -2.0343   -3.2426 H         1 <0>         0.1299
     32 H6          0.5220   -1.0532   -1.2542 H         1 <0>         0.1319
     33 H7          0.5405   -2.2886    0.8728 H         1 <0>         0.1251
     34 H8         -1.5978   -5.5017   -0.9977 H         1 <0>         0.1379
     35 H9          0.5406   -3.3488    2.3771 H         1 <0>         0.4120
     36 H10        -0.1366   -3.0474    4.8197 H         1 <0>         0.1284
     37 H11        -0.2710   -4.2178    6.9802 H         1 <0>         0.1310
     38 H12        -0.2178   -6.6773    7.0556 H         1 <0>         0.1234
     39 H13         0.0918   -6.8127    2.8049 H         1 <0>         0.1435
     40 H14        -2.0521   -8.6146    4.3017 H         1 <0>         0.0773
     41 H15        -1.4206  -10.0254    5.1844 H         1 <0>         0.0654
     42 H16        -1.8756   -8.5510    6.0717 H         1 <0>         0.0657
     43 H17         0.9098   -8.2474    6.8887 H         1 <0>         0.4091
     44 H18         0.6500  -10.6015    4.1639 H         1 <0>         0.1730
     45 H19         3.0371  -13.4652    6.0056 H         1 <0>         0.1767
@<TRIPOS>BOND
     1    1    2 1
     2    1   28 1
     3    1   29 1
     4    1   30 1
     5    2    7 ar
     6    2    3 ar
     7    3    4 ar
     8    3   31 1
     9    4    5 ar
    10    4   32 1
    11    5    6 ar
    12    5   33 1
    13    6    7 ar
    14    6    8 1
    15    7   34 1
    16    8    9 2
    17    8   10 am
    18   10   11 1
    19   10   35 1
    20   11   16 ar
    21   11   12 ar
    22   12   13 ar
    23   12   36 1
    24   13   14 ar
    25   13   37 1
    26   14   15 ar
    27   14   38 1
    28   15   16 ar
    29   15   17 1
    30   16   39 1
    31   17   18 1
    32   17   19 1
    33   17   20 1
    34   19   40 1
    35   19   41 1
    36   19   42 1
    37   20   21 1
    38   20   43 1
    39   21   26 ar
    40   21   22 ar
    41   22   23 ar
    42   22   44 1
    43   23   24 ar
    44   24   25 ar
    45   24   45 1
    46   25   26 ar
    47   25   27 1
@<TRIPOS>MOLECULE
CHEMBL403661
   44    47     0     0     0
SMALL
USER_CHARGES

@<TRIPOS>ATOM
      1 C1         -0.0187    1.5258    0.0104 C.3       1 <0>        -0.1474
      2 C2          0.0021   -0.0041    0.0020 C.3       1 <0>        -0.0892
      3 C3          0.7074   -0.4901   -1.2379 C.ar      1 <0>        -0.0634
      4 C4         -0.0144   -0.7176   -2.3964 C.ar      1 <0>        -0.1140
      5 C5          0.6247   -1.1625   -3.5348 C.ar      1 <0>        -0.0921
      6 C6          2.0038   -1.3828   -3.5166 C.ar      1 <0>        -0.0702
      7 C7          2.7262   -1.1506   -2.3440 C.ar      1 <0>        -0.0793
      8 C8          2.0749   -0.7012   -1.2142 C.ar      1 <0>        -0.1137
      9 C9          2.6953   -1.8597   -4.7320 C.2       1 <0>         0.0786
     10 C10         2.4025   -3.1861   -5.2949 C.ar      1 <0>        -0.1044
     11 C11         1.4605   -4.0233   -4.6883 C.ar      1 <0>        -0.0413
     12 C12         1.1991   -5.2621   -5.2300 C.ar      1 <0>        -0.0655
     13 C13         1.8661   -5.6819   -6.3738 C.ar      1 <0>        -0.0523
     14 C14         2.7965   -4.8682   -6.9823 C.ar      1 <0>        -0.1491
     15 C15         3.0767   -3.6118   -6.4521 C.ar      1 <0>         0.1930
     16 N1          4.0083   -2.7940   -7.0610 N.am      1 <0>        -0.6286
     17 H1          4.4616   -3.1073   -7.8593 H         1 <0>         0.4200
     18 C16         4.3031   -1.5757   -6.5770 C.2       1 <0>         0.5450
     19 O1          5.1315   -0.8873   -7.1465 O.2       1 <0>        -0.5177
     20 C17         3.6379   -1.0615   -5.3781 C.2       1 <0>        -0.1041
     21 C18         3.9641    0.2790   -4.8590 C.2       1 <0>         0.0295
     22 C19         3.1252    1.3517   -4.7829 C.2       1 <0>         0.0180
     23 N2          3.8097    2.3712   -4.2529 N.2       1 <0>        -0.4846
     24 C20         5.0321    1.9906   -3.9944 C.2       1 <0>         0.2187
     25 N3          5.1747    0.6942   -4.3494 N.pl3     1 <0>        -0.5521
     26 H2          5.9784    0.1579   -4.2635 H         1 <0>         0.4180
     27 C21         6.1087    2.8560   -3.3915 C.3       1 <0>        -0.0708
     28 Cl1         0.0309   -6.3041   -4.4795 Cl        1 <0>        -0.0561
     29 H3          1.0039    1.9031    0.0027 H         1 <0>         0.0565
     30 H4         -0.5459    1.8868   -0.8726 H         1 <0>         0.0573
     31 H5         -0.5289    1.8773    0.9072 H         1 <0>         0.0594
     32 H6          0.5293   -0.3651    0.8851 H         1 <0>         0.0729
     33 H7         -1.0205   -0.3814    0.0098 H         1 <0>         0.0742
     34 H8         -1.0807   -0.5469   -2.4090 H         1 <0>         0.1279
     35 H9          0.0601   -1.3403   -4.4381 H         1 <0>         0.1270
     36 H10         3.7927   -1.3189   -2.3230 H         1 <0>         0.1172
     37 H11         2.6328   -0.5174   -0.3079 H         1 <0>         0.1244
     38 H12         0.9406   -3.6997   -3.7987 H         1 <0>         0.1487
     39 H13         1.6535   -6.6556   -6.7900 H         1 <0>         0.1464
     40 H14         3.3091   -5.2054   -7.8710 H         1 <0>         0.1469
     41 H15         2.0917    1.3741   -5.0954 H         1 <0>         0.1675
     42 H16         6.0780    2.7702   -2.3054 H         1 <0>         0.0816
     43 H17         7.0832    2.5292   -3.7544 H         1 <0>         0.0742
     44 H18         5.9435    3.8944   -3.6789 H         1 <0>         0.0931
@<TRIPOS>BOND
     1    1    2 1
     2    1   29 1
     3    1   30 1
     4    1   31 1
     5    2    3 1
     6    2   32 1
     7    2   33 1
     8    3    8 ar
     9    3    4 ar
    10    4    5 ar
    11    4   34 1
    12    5    6 ar
    13    5   35 1
    14    6    7 ar
    15    6    9 1
    16    7    8 ar
    17    7   36 1
    18    8   37 1
    19    9   20 2
    20    9   10 1
    21   10   15 ar
    22   10   11 ar
    23   11   12 ar
    24   11   38 1
    25   12   13 ar
    26   12   28 1
    27   13   14 ar
    28   13   39 1
    29   14   15 ar
    30   14   40 1
    31   15   16 1
    32   16   17 1
    33   16   18 am
    34   18   19 2
    35   18   20 1
    36   20   21 1
    37   21   25 1
    38   21   22 2
    39   22   23 1
    40   22   41 1
    41   23   24 2
    42   24   25 1
    43   24   27 1
    44   25   26 1
    45   27   42 1
    46   27   43 1
    47   27   44 1
@<TRIPOS>MOLECULE
CHEMBL403661__1
   44    47     0     0     0
SMALL
USER_CHARGES

@<TRIPOS>ATOM
      1 C1         -0.0187    1.5258    0.0104 C.3       1 <0>        -0.1452
      2 C2          0.0021   -0.0041    0.0020 C.3       1 <0>        -0.0871
      3 C3         -1.4117   -0.5257    0.0127 C.ar      1 <0>        -0.0680
      4 C4         -2.0484   -0.7651    1.2178 C.ar      1 <0>        -0.1191
      5 C5         -3.3424   -1.2425    1.2349 C.ar      1 <0>        -0.0333
      6 C6         -4.0100   -1.4838    0.0324 C.ar      1 <0>        -0.0481
      7 C7         -3.3617   -1.2396   -1.1800 C.ar      1 <0>        -0.0929
      8 C8         -2.0693   -0.7576   -1.1825 C.ar      1 <0>        -0.1239
      9 C9         -5.3964   -1.9959    0.0429 C.2       1 <0>         0.0555
     10 C10        -5.7108   -3.3323   -0.4845 C.ar      1 <0>        -0.0952
     11 C11        -4.7008   -4.1461   -1.0068 C.ar      1 <0>        -0.0449
     12 C12        -5.0145   -5.3947   -1.4958 C.ar      1 <0>        -0.0638
     13 C13        -6.3276   -5.8471   -1.4723 C.ar      1 <0>        -0.0593
     14 C14        -7.3332   -5.0565   -0.9609 C.ar      1 <0>        -0.1472
     15 C15        -7.0388   -3.7910   -0.4608 C.ar      1 <0>         0.1837
     16 N1         -8.0446   -2.9964    0.0530 N.am      1 <0>        -0.6268
     17 H1         -8.9546   -3.3320    0.0604 H         1 <0>         0.4198
     18 C16        -7.7952   -1.7705    0.5434 C.2       1 <0>         0.5528
     19 O1         -8.7128   -1.1031    0.9876 O.2       1 <0>        -0.5271
     20 C17        -6.4367   -1.2282    0.5572 C.2       1 <0>        -0.0804
     21 C18        -6.1731    0.1207    1.1061 C.2       1 <0>         0.0365
     22 C19        -7.0971    0.9653    1.6406 C.2       1 <0>        -0.0078
     23 N2         -6.4237    2.0931    2.0202 N.pl3     1 <0>        -0.5678
     24 C20        -5.1210    1.9105    1.7114 C.2       1 <0>         0.2055
     25 N3         -4.9724    0.7330    1.1724 N.2       1 <0>        -0.4556
     26 H2         -6.8103    2.8801    2.4351 H         1 <0>         0.4205
     27 C21        -4.0163    2.9058    1.9564 C.3       1 <0>        -0.0683
     28 Cl1        -3.7632   -6.4078   -2.1449 Cl        1 <0>        -0.0593
     29 H3          1.0039    1.9031    0.0027 H         1 <0>         0.0558
     30 H4         -0.5459    1.8868   -0.8726 H         1 <0>         0.0551
     31 H5         -0.5289    1.8773    0.9072 H         1 <0>         0.0557
     32 H6          0.5123   -0.3556   -0.8948 H         1 <0>         0.0700
     33 H7          0.5293   -0.3651    0.8851 H         1 <0>         0.0701
     34 H8         -1.5308   -0.5780    2.1470 H         1 <0>         0.1172
     35 H9         -3.8379   -1.4296    2.1761 H         1 <0>         0.1117
     36 H10        -3.8724   -1.4241   -2.1136 H         1 <0>         0.1168
     37 H11        -1.5681   -0.5644   -2.1195 H         1 <0>         0.1190
     38 H12        -3.6790   -3.7968   -1.0270 H         1 <0>         0.1482
     39 H13        -6.5625   -6.8277   -1.8591 H         1 <0>         0.1444
     40 H14        -8.3506   -5.4186   -0.9481 H         1 <0>         0.1451
     41 H15        -8.1561    0.7807    1.7441 H         1 <0>         0.1947
     42 H16        -3.5872    2.7366    2.9440 H         1 <0>         0.0800
     43 H17        -3.2426    2.7838    1.1983 H         1 <0>         0.0906
     44 H18        -4.4200    3.9169    1.9040 H         1 <0>         0.0727
@<TRIPOS>BOND
     1    1    2 1
     2    1   29 1
     3    1   30 1
     4    1   31 1
     5    2    3 1
     6    2   32 1
     7    2   33 1
     8    3    8 ar
     9    3    4 ar
    10    4    5 ar
    11    4   34 1
    12    5    6 ar
    13    5   35 1
    14    6    7 ar
    15    6    9 1
    16    7    8 ar
    17    7   36 1
    18    8   37 1
    19    9   20 2
    20    9   10 1
    21   10   15 ar
    22   10   11 ar
    23   11   12 ar
    24   11   38 1
    25   12   13 ar
    26   12   28 1
    27   13   14 ar
    28   13   39 1
    29   14   15 ar
    30   14   40 1
    31   15   16 1
    32   16   17 1
    33   16   18 am
    34   18   19 2
    35   18   20 1
    36   20   21 1
    37   21   25 1
    38   21   22 2
    39   22   41 1
    40   22   23 1
    41   23   24 1
    42   23   26 1
    43   24   27 1
    44   24   25 2
    45   27   42 1
    46   27   43 1
    47   27   44 1
@<TRIPOS>MOLECULE
CHEMBL1171604
   62    65     0     0     0
SMALL
USER_CHARGES

@<TRIPOS>ATOM
      1 C1         -0.0152    1.5110    0.0118 C.3       1 <0>        -0.1394
      2 C2          0.0134   -0.0186   -0.0043 C.3       1 <0>        -0.0657
      3 C3          0.7528   -0.5070   -1.2561 C.3       1 <0>        -0.1053
      4 C4          2.1070    0.2019   -1.3275 C.3       1 <0>        -0.0761
      5 C5          2.8160    0.0955   -0.0089 C.2       1 <0>        -0.0934
      6 C6          2.2218   -0.2228    1.1165 C.2       1 <0>        -0.1193
      7 C7          0.7575   -0.5320    1.2302 C.3       1 <0>        -0.0784
      8 C8          4.2677    0.3655    0.0237 C.ar      1 <0>        -0.0810
      9 C9          5.1673   -0.5746   -0.4792 C.ar      1 <0>        -0.0763
     10 C10         6.5221   -0.3168   -0.4467 C.ar      1 <0>        -0.1102
     11 C11         6.9945    0.8716    0.0837 C.ar      1 <0>        -0.0926
     12 C12         6.1146    1.8112    0.5850 C.ar      1 <0>        -0.1217
     13 C13         4.7487    1.5702    0.5546 C.ar      1 <0>         0.1819
     14 N1          3.8578    2.5207    1.0554 N.am      1 <0>        -0.6635
     15 C14         4.2006    3.2692    2.1225 C.2       1 <0>         0.6277
     16 O1          5.3156    3.1750    2.5984 O.2       1 <0>        -0.5305
     17 C15         3.2230    4.2028    2.7132 C.2       1 <0>         0.0484
     18 N2          1.9411    4.3950    2.2752 N.2       1 <0>        -0.5263
     19 C16         1.3744    5.3237    3.0728 C.2       1 <0>        -0.0067
     20 C17         2.3297    5.6919    4.0002 C.2       1 <0>        -0.0434
     21 N3          3.4392    4.9804    3.7481 N.2       1 <0>        -0.4519
     22 C18         2.1639    6.6555    5.0464 C.1       1 <0>         0.3319
     23 N4          2.0323    7.4199    5.8764 N.1       1 <0>        -0.4923
     24 C19         7.4924   -1.3336   -0.9904 C.3       1 <0>        -0.0656
     25 C20         8.4632   -1.7613    0.1155 C.3       1 <0>         0.1185
     26 N5          9.4703   -2.6602   -0.4507 N.am      1 <0>        -0.6283
     27 C21         9.8426   -2.5695   -1.7361 C.2       1 <0>         0.7076
     28 O2         10.6908   -3.3341   -2.1536 O.2       1 <0>        -0.6008
     29 N6          9.3160   -1.6691   -2.5794 N.am      1 <0>        -0.6288
     30 C22         8.3001   -0.7133   -2.1355 C.3       1 <0>         0.1201
     31 C23         9.7668   -1.6416   -3.9731 C.3       1 <0>         0.0959
     32 C24        10.0843   -3.6792    0.4041 C.3       1 <0>         0.1022
     33 C25        -1.4178   -0.5596   -0.0038 C.3       1 <0>        -0.1398
     34 H1          1.0054    1.8936    0.0043 H         1 <0>         0.0629
     35 H2         -0.5458    1.8738   -0.8685 H         1 <0>         0.0496
     36 H3         -0.5257    1.8554    0.9112 H         1 <0>         0.0579
     37 H4          0.9062   -1.5843   -1.1939 H         1 <0>         0.0612
     38 H5          0.1672   -0.2682   -2.1439 H         1 <0>         0.0638
     39 H6          2.7165   -0.2607   -2.1038 H         1 <0>         0.0682
     40 H7          1.9522    1.2530   -1.5708 H         1 <0>         0.0757
     41 H8          2.8215   -0.2655    2.0136 H         1 <0>         0.1024
     42 H9          0.3548   -0.0502    2.1211 H         1 <0>         0.0750
     43 H10         0.6209   -1.6103    1.3120 H         1 <0>         0.0714
     44 H11         4.8035   -1.5034   -0.8933 H         1 <0>         0.1220
     45 H12         8.0568    1.0650    0.1059 H         1 <0>         0.1210
     46 H13         6.4902    2.7361    0.9973 H         1 <0>         0.1441
     47 H14         2.9919    2.6425    0.6355 H         1 <0>         0.4177
     48 H15         0.3671    5.7063    2.9999 H         1 <0>         0.1467
     49 H16         6.9453   -2.2021   -1.3570 H         1 <0>         0.0893
     50 H17         8.9532   -0.8807    0.5307 H         1 <0>         0.0703
     51 H18         7.9141   -2.2788    0.9021 H         1 <0>         0.0861
     52 H19         7.6338   -0.4780   -2.9654 H         1 <0>         0.0856
     53 H20         8.7853    0.1984   -1.7868 H         1 <0>         0.0694
     54 H21        10.5190   -2.4153   -4.1269 H         1 <0>         0.0893
     55 H22         8.9185   -1.8233   -4.6330 H         1 <0>         0.0571
     56 H23        10.1983   -0.6658   -4.1962 H         1 <0>         0.0572
     57 H24         9.4971   -4.5963    0.3554 H         1 <0>         0.0516
     58 H25        11.0991   -3.8789    0.0599 H         1 <0>         0.0781
     59 H26        10.1136   -3.3208    1.4331 H         1 <0>         0.0693
     60 H27        -1.9432   -0.1981   -0.8878 H         1 <0>         0.0537
     61 H28        -1.3943   -1.6493   -0.0154 H         1 <0>         0.0510
     62 H29        -1.9354   -0.2168    0.8921 H         1 <0>         0.0554
@<TRIPOS>BOND
     1    1    2 1
     2    1   34 1
     3    1   35 1
     4    1   36 1
     5    2    7 1
     6    2    3 1
     7    2   33 1
     8    3    4 1
     9    3   37 1
    10    3   38 1
    11    4    5 1
    12    4   39 1
    13    4   40 1
    14    5    6 2
    15    5    8 1
    16    6    7 1
    17    6   41 1
    18    7   42 1
    19    7   43 1
    20    8   13 ar
    21    8    9 ar
    22    9   10 ar
    23    9   44 1
    24   10   11 ar
    25   10   24 1
    26   11   12 ar
    27   11   45 1
    28   12   13 ar
    29   12   46 1
    30   13   14 1
    31   14   15 am
    32   14   47 1
    33   15   16 2
    34   15   17 1
    35   17   21 2
    36   17   18 1
    37   18   19 1
    38   19   20 2
    39   19   48 1
    40   20   21 1
    41   20   22 1
    42   22   23 3
    43   24   30 1
    44   24   25 1
    45   24   49 1
    46   25   26 1
    47   25   50 1
    48   25   51 1
    49   26   27 am
    50   26   32 1
    51   27   28 2
    52   27   29 am
    53   29   30 1
    54   29   31 1
    55   30   52 1
    56   30   53 1
    57   31   54 1
    58   31   55 1
    59   31   56 1
    60   32   57 1
    61   32   58 1
    62   32   59 1
    63   33   60 1
    64   33   61 1
    65   33   62 1
@<TRIPOS>MOLECULE
CHEMBL1171604__1
   63    66     0     0     0
SMALL
USER_CHARGES

@<TRIPOS>ATOM
      1 C1         -0.0152    1.5110    0.0118 C.3       1 <0>        -0.1393
      2 C2          0.0134   -0.0186   -0.0043 C.3       1 <0>        -0.0655
      3 C3          0.7528   -0.5070   -1.2561 C.3       1 <0>        -0.1082
      4 C4          2.1070    0.2019   -1.3275 C.3       1 <0>        -0.0776
      5 C5          2.8160    0.0955   -0.0089 C.2       1 <0>        -0.0989
      6 C6          2.2218   -0.2228    1.1165 C.2       1 <0>        -0.1183
      7 C7          0.7575   -0.5320    1.2302 C.3       1 <0>        -0.0810
      8 C8          4.2677    0.3655    0.0237 C.ar      1 <0>        -0.0614
      9 C9          5.1673   -0.5746   -0.4792 C.ar      1 <0>        -0.0772
     10 C10         6.5221   -0.3168   -0.4467 C.ar      1 <0>        -0.0859
     11 C11         6.9945    0.8716    0.0837 C.ar      1 <0>        -0.0943
     12 C12         6.1146    1.8112    0.5850 C.ar      1 <0>        -0.1124
     13 C13         4.7487    1.5701    0.5546 C.ar      1 <0>         0.1522
     14 N1          3.8578    2.5207    1.0554 N.am      1 <0>        -0.6399
     15 C14         4.2006    3.2692    2.1225 C.2       1 <0>         0.6110
     16 O1          5.3156    3.1750    2.5984 O.2       1 <0>        -0.5127
     17 C15         3.2230    4.2028    2.7132 C.2       1 <0>         0.1588
     18 N2          3.4502    5.0175    3.7888 N.pl3     1 <0>        -0.5110
     19 H1          4.2757    5.0835    4.2939 H         1 <0>         0.4427
     20 C16         2.3171    5.7125    4.0183 C.2       1 <0>         0.0646
     21 C17         1.3999    5.3084    3.0676 C.2       1 <0>         0.0606
     22 N3          1.9954    4.3916    2.2894 N.2       1 <0>        -0.4004
     23 C18         0.0568    5.7863    2.9331 C.1       1 <0>         0.2935
     24 N4         -1.0088    6.1655    2.8263 N.1       1 <0>        -0.3915
     25 C19         7.4924   -1.3336   -0.9904 C.3       1 <0>        -0.0736
     26 C20         8.4632   -1.7613    0.1155 C.3       1 <0>         0.1206
     27 N5          9.4703   -2.6602   -0.4507 N.am      1 <0>        -0.6290
     28 C21         9.8426   -2.5695   -1.7361 C.2       1 <0>         0.7065
     29 O2         10.6908   -3.3342   -2.1536 O.2       1 <0>        -0.5937
     30 N6          9.3160   -1.6691   -2.5794 N.am      1 <0>        -0.6289
     31 C22         8.3001   -0.7133   -2.1355 C.3       1 <0>         0.1214
     32 C23         9.7668   -1.6416   -3.9731 C.3       1 <0>         0.0947
     33 C24        10.0843   -3.6793    0.4041 C.3       1 <0>         0.1013
     34 C25        -1.4178   -0.5596   -0.0038 C.3       1 <0>        -0.1426
     35 H2          1.0054    1.8936    0.0043 H         1 <0>         0.0567
     36 H3         -0.5458    1.8738   -0.8685 H         1 <0>         0.0541
     37 H4         -0.5257    1.8554    0.9112 H         1 <0>         0.0547
     38 H5          0.9062   -1.5843   -1.1939 H         1 <0>         0.0651
     39 H6          0.1672   -0.2682   -2.1439 H         1 <0>         0.0678
     40 H7          2.7165   -0.2607   -2.1038 H         1 <0>         0.0724
     41 H8          1.9522    1.2530   -1.5708 H         1 <0>         0.0757
     42 H9          2.8215   -0.2655    2.0136 H         1 <0>         0.1026
     43 H10         0.3547   -0.0502    2.1211 H         1 <0>         0.0741
     44 H11         0.6209   -1.6103    1.3120 H         1 <0>         0.0770
     45 H12         4.8035   -1.5034   -0.8933 H         1 <0>         0.1296
     46 H13         8.0568    1.0650    0.1059 H         1 <0>         0.1278
     47 H14         6.4902    2.7361    0.9973 H         1 <0>         0.1432
     48 H15         2.9919    2.6425    0.6355 H         1 <0>         0.4236
     49 H16         2.1573    6.4441    4.7965 H         1 <0>         0.2091
     50 H17         6.9453   -2.2021   -1.3570 H         1 <0>         0.0938
     51 H18         8.9532   -0.8807    0.5307 H         1 <0>         0.0690
     52 H19         7.9141   -2.2788    0.9022 H         1 <0>         0.0860
     53 H20         7.6338   -0.4780   -2.9654 H         1 <0>         0.0863
     54 H21         8.7853    0.1984   -1.7868 H         1 <0>         0.0686
     55 H22        10.5190   -2.4153   -4.1269 H         1 <0>         0.0915
     56 H23         8.9185   -1.8233   -4.6330 H         1 <0>         0.0584
     57 H24        10.1983   -0.6658   -4.1962 H         1 <0>         0.0584
     58 H25         9.4971   -4.5963    0.3554 H         1 <0>         0.0533
     59 H26        11.0991   -3.8789    0.0599 H         1 <0>         0.0803
     60 H27        10.1136   -3.3208    1.4331 H         1 <0>         0.0694
     61 H28        -1.9432   -0.1981   -0.8878 H         1 <0>         0.0565
     62 H29        -1.3943   -1.6493   -0.0154 H         1 <0>         0.0547
     63 H30        -1.9354   -0.2168    0.8921 H         1 <0>         0.0556
@<TRIPOS>BOND
     1    1    2 1
     2    1   35 1
     3    1   36 1
     4    1   37 1
     5    2    7 1
     6    2    3 1
     7    2   34 1
     8    3    4 1
     9    3   38 1
    10    3   39 1
    11    4    5 1
    12    4   40 1
    13    4   41 1
    14    5    6 2
    15    5    8 1
    16    6    7 1
    17    6   42 1
    18    7   43 1
    19    7   44 1
    20    8   13 ar
    21    8    9 ar
    22    9   10 ar
    23    9   45 1
    24   10   11 ar
    25   10   25 1
    26   11   12 ar
    27   11   46 1
    28   12   13 ar
    29   12   47 1
    30   13   14 1
    31   14   15 am
    32   14   48 1
    33   15   16 2
    34   15   17 1
    35   17   22 2
    36   17   18 1
    37   18   19 1
    38   18   20 1
    39   20   21 2
    40   20   49 1
    41   21   22 1
    42   21   23 1
    43   23   24 3
    44   25   31 1
    45   25   26 1
    46   25   50 1
    47   26   27 1
    48   26   51 1
    49   26   52 1
    50   27   28 am
    51   27   33 1
    52   28   29 2
    53   28   30 am
    54   30   31 1
    55   30   32 1
    56   31   53 1
    57   31   54 1
    58   32   55 1
    59   32   56 1
    60   32   57 1
    61   33   58 1
    62   33   59 1
    63   33   60 1
    64   34   61 1
    65   34   62 1
    66   34   63 1
@<TRIPOS>MOLECULE
CHEMBL1171605
   59    62     0     0     0
SMALL
USER_CHARGES

@<TRIPOS>ATOM
      1 C1          0.0216    1.4244   -0.0238 C.3       1 <0>         0.0955
      2 N1          0.0324   -0.0406   -0.0296 N.am      1 <0>        -0.6283
      3 C2         -1.2384   -0.7670   -0.0212 C.3       1 <0>         0.1190
      4 C3         -1.0408   -2.1178    0.6750 C.3       1 <0>        -0.0656
      5 C4          0.0948   -2.8680   -0.0292 C.3       1 <0>         0.1195
      6 N2          1.2932   -2.0275   -0.0371 N.am      1 <0>        -0.6289
      7 C5          1.2065   -0.6889   -0.0479 C.2       1 <0>         0.7078
      8 O1          2.2329   -0.0374   -0.0699 O.2       1 <0>        -0.6006
      9 C6          2.6141   -2.6611   -0.0393 C.3       1 <0>         0.1029
     10 C7         -2.3111   -2.9236    0.5861 C.ar      1 <0>        -0.1106
     11 C8         -2.8260   -3.2640   -0.6532 C.ar      1 <0>        -0.0923
     12 C9         -3.9897   -4.0023   -0.7472 C.ar      1 <0>        -0.1220
     13 C10        -4.6505   -4.4077    0.4034 C.ar      1 <0>         0.1833
     14 C11        -4.1316   -4.0651    1.6595 C.ar      1 <0>        -0.0833
     15 C12        -2.9527   -3.3237    1.7400 C.ar      1 <0>        -0.0765
     16 C13        -4.8263   -4.4912    2.8913 C.2       1 <0>        -0.0930
     17 C14        -5.9273   -3.8556    3.2176 C.2       1 <0>        -0.1193
     18 C15        -6.7845   -4.2379    4.3893 C.3       1 <0>        -0.0961
     19 C16        -5.9345   -4.3581    5.6595 C.3       1 <0>        -0.1144
     20 C17        -5.4967   -5.8149    5.7959 C.3       1 <0>        -0.1200
     21 C18        -5.2998   -6.4231    4.4039 C.3       1 <0>        -0.1283
     22 C19        -4.2235   -5.6222    3.6721 C.3       1 <0>        -0.0711
     23 N3         -5.8269   -5.1529    0.3105 N.am      1 <0>        -0.6631
     24 C20        -6.6917   -4.9242   -0.6976 C.2       1 <0>         0.6279
     25 O2         -6.4097   -4.1269   -1.5714 O.2       1 <0>        -0.5305
     26 C21        -7.9803   -5.6410   -0.7410 C.2       1 <0>         0.0489
     27 N4         -8.4146   -6.5536    0.1813 N.2       1 <0>        -0.5288
     28 C22        -9.6332   -6.9788   -0.2109 C.2       1 <0>        -0.0067
     29 C23        -9.9320   -6.3118   -1.3831 C.2       1 <0>        -0.0433
     30 N5         -8.8995   -5.5031   -1.6674 N.2       1 <0>        -0.4517
     31 C24       -11.1305   -6.4540   -2.1538 C.1       1 <0>         0.3320
     32 N6        -12.0813   -6.5668   -2.7652 N.1       1 <0>        -0.4919
     33 H1          1.0464    1.7953   -0.0362 H         1 <0>         0.0894
     34 H2         -0.5069    1.7873   -0.9053 H         1 <0>         0.0576
     35 H3         -0.4829    1.7804    0.8745 H         1 <0>         0.0575
     36 H4         -1.9868   -0.1857    0.5174 H         1 <0>         0.0860
     37 H5         -1.5712   -0.9307   -1.0461 H         1 <0>         0.0698
     38 H6         -0.7793   -1.9559    1.7207 H         1 <0>         0.0893
     39 H7          0.3040   -3.7956    0.5037 H         1 <0>         0.0859
     40 H8         -0.1985   -3.0939   -1.0544 H         1 <0>         0.0693
     41 H9          2.9379   -2.8226   -1.0675 H         1 <0>         0.0517
     42 H10         3.3285   -2.0137    0.4692 H         1 <0>         0.0770
     43 H11         2.5587   -3.6185    0.4788 H         1 <0>         0.0689
     44 H12        -2.3151   -2.9502   -1.5515 H         1 <0>         0.1209
     45 H13        -4.3858   -4.2639   -1.7173 H         1 <0>         0.1441
     46 H14        -2.5451   -3.0593    2.7046 H         1 <0>         0.1216
     47 H15        -6.2320   -3.0145    2.6126 H         1 <0>         0.1030
     48 H16        -7.5503   -3.4769    4.5390 H         1 <0>         0.0628
     49 H17        -7.2662   -5.1944    4.1864 H         1 <0>         0.0865
     50 H18        -5.0577   -3.7156    5.5785 H         1 <0>         0.0629
     51 H19        -6.5261   -4.0680    6.5278 H         1 <0>         0.0610
     52 H20        -4.5584   -5.8618    6.3487 H         1 <0>         0.0582
     53 H21        -6.2623   -6.3755    6.3322 H         1 <0>         0.0596
     54 H22        -4.9827   -7.4616    4.4984 H         1 <0>         0.0634
     55 H23        -6.2347   -6.3733    3.8458 H         1 <0>         0.0806
     56 H24        -3.6869   -6.2818    2.9902 H         1 <0>         0.0663
     57 H25        -3.5233   -5.2188    4.4036 H         1 <0>         0.0701
     58 H26        -6.0221   -5.8355    0.9714 H         1 <0>         0.4187
     59 H27       -10.2559   -7.7021    0.2946 H         1 <0>         0.1473
@<TRIPOS>BOND
     1    1    2 1
     2    1   33 1
     3    1   34 1
     4    1   35 1
     5    2    7 am
     6    2    3 1
     7    3    4 1
     8    3   36 1
     9    3   37 1
    10    4    5 1
    11    4   10 1
    12    4   38 1
    13    5    6 1
    14    5   39 1
    15    5   40 1
    16    6    7 am
    17    6    9 1
    18    7    8 2
    19    9   41 1
    20    9   42 1
    21    9   43 1
    22   10   15 ar
    23   10   11 ar
    24   11   12 ar
    25   11   44 1
    26   12   13 ar
    27   12   45 1
    28   13   14 ar
    29   13   23 1
    30   14   15 ar
    31   14   16 1
    32   15   46 1
    33   16   22 1
    34   16   17 2
    35   17   18 1
    36   17   47 1
    37   18   19 1
    38   18   48 1
    39   18   49 1
    40   19   20 1
    41   19   50 1
    42   19   51 1
    43   20   21 1
    44   20   52 1
    45   20   53 1
    46   21   22 1
    47   21   54 1
    48   21   55 1
    49   22   56 1
    50   22   57 1
    51   23   24 am
    52   23   58 1
    53   24   25 2
    54   24   26 1
    55   26   30 2
    56   26   27 1
    57   27   28 1
    58   28   29 2
    59   28   59 1
    60   29   30 1
    61   29   31 1
    62   31   32 3
@<TRIPOS>MOLECULE
CHEMBL1171605__1
   60    63     0     0     0
SMALL
USER_CHARGES

@<TRIPOS>ATOM
      1 C1          0.0216    1.4244   -0.0238 C.3       1 <0>         0.0947
      2 N1          0.0324   -0.0406   -0.0296 N.am      1 <0>        -0.6289
      3 C2         -1.2384   -0.7670   -0.0212 C.3       1 <0>         0.1211
      4 C3         -1.0408   -2.1178    0.6750 C.3       1 <0>        -0.0737
      5 C4          0.0948   -2.8680   -0.0292 C.3       1 <0>         0.1207
      6 N2          1.2932   -2.0275   -0.0371 N.am      1 <0>        -0.6290
      7 C5          1.2065   -0.6889   -0.0479 C.2       1 <0>         0.7067
      8 O1          2.2329   -0.0374   -0.0699 O.2       1 <0>        -0.5934
      9 C6          2.6141   -2.6611   -0.0393 C.3       1 <0>         0.1017
     10 C7         -2.3111   -2.9236    0.5861 C.ar      1 <0>        -0.0862
     11 C8         -2.8260   -3.2640   -0.6532 C.ar      1 <0>        -0.0940
     12 C9         -3.9897   -4.0023   -0.7472 C.ar      1 <0>        -0.1127
     13 C10        -4.6505   -4.4077    0.4034 C.ar      1 <0>         0.1536
     14 C11        -4.1316   -4.0651    1.6595 C.ar      1 <0>        -0.0639
     15 C12        -2.9527   -3.3237    1.7400 C.ar      1 <0>        -0.0773
     16 C13        -4.8263   -4.4912    2.8913 C.2       1 <0>        -0.0969
     17 C14        -5.9273   -3.8556    3.2176 C.2       1 <0>        -0.1203
     18 C15        -6.7845   -4.2379    4.3893 C.3       1 <0>        -0.0970
     19 C16        -5.9345   -4.3581    5.6595 C.3       1 <0>        -0.1162
     20 C17        -5.4967   -5.8149    5.7959 C.3       1 <0>        -0.1231
     21 C18        -5.2998   -6.4231    4.4039 C.3       1 <0>        -0.1260
     22 C19        -4.2235   -5.6222    3.6721 C.3       1 <0>        -0.0753
     23 N3         -5.8269   -5.1529    0.3105 N.am      1 <0>        -0.6394
     24 C20        -6.6917   -4.9242   -0.6976 C.2       1 <0>         0.6111
     25 O2         -6.4097   -4.1269   -1.5714 O.2       1 <0>        -0.5129
     26 C21        -7.9803   -5.6410   -0.7410 C.2       1 <0>         0.1597
     27 N4         -8.9363   -5.5012   -1.7097 N.pl3     1 <0>        -0.5111
     28 H1         -8.8878   -4.9181   -2.4833 H         1 <0>         0.4428
     29 C22        -9.9585   -6.3226   -1.3930 C.2       1 <0>         0.0647
     30 C23        -9.6094   -6.9622   -0.2194 C.2       1 <0>         0.0605
     31 N5         -8.3942   -6.5209    0.1403 N.2       1 <0>        -0.4018
     32 C24       -10.4000   -7.9268    0.4841 C.1       1 <0>         0.2937
     33 N6        -11.0272   -8.6921    1.0423 N.1       1 <0>        -0.3916
     34 H2          1.0464    1.7953   -0.0362 H         1 <0>         0.0916
     35 H3         -0.5069    1.7873   -0.9053 H         1 <0>         0.0583
     36 H4         -0.4829    1.7805    0.8745 H         1 <0>         0.0585
     37 H5         -1.9868   -0.1857    0.5174 H         1 <0>         0.0859
     38 H6         -1.5712   -0.9307   -1.0461 H         1 <0>         0.0686
     39 H7         -0.7793   -1.9559    1.7207 H         1 <0>         0.0939
     40 H8          0.3040   -3.7956    0.5037 H         1 <0>         0.0865
     41 H9         -0.1985   -3.0939   -1.0544 H         1 <0>         0.0685
     42 H10         2.9379   -2.8226   -1.0675 H         1 <0>         0.0535
     43 H11         3.3285   -2.0136    0.4692 H         1 <0>         0.0792
     44 H12         2.5587   -3.6185    0.4788 H         1 <0>         0.0697
     45 H13        -2.3151   -2.9502   -1.5515 H         1 <0>         0.1278
     46 H14        -4.3858   -4.2639   -1.7173 H         1 <0>         0.1432
     47 H15        -2.5451   -3.0593    2.7046 H         1 <0>         0.1292
     48 H16        -6.2320   -3.0145    2.6126 H         1 <0>         0.1037
     49 H17        -7.5503   -3.4769    4.5390 H         1 <0>         0.0648
     50 H18        -7.2662   -5.1944    4.1864 H         1 <0>         0.0845
     51 H19        -5.0577   -3.7156    5.5785 H         1 <0>         0.0648
     52 H20        -6.5261   -4.0680    6.5278 H         1 <0>         0.0647
     53 H21        -4.5584   -5.8618    6.3487 H         1 <0>         0.0623
     54 H22        -6.2623   -6.3755    6.3322 H         1 <0>         0.0618
     55 H23        -4.9827   -7.4616    4.4984 H         1 <0>         0.0661
     56 H24        -6.2347   -6.3733    3.8458 H         1 <0>         0.0751
     57 H25        -3.6869   -6.2818    2.9902 H         1 <0>         0.0680
     58 H26        -3.5233   -5.2188    4.4036 H         1 <0>         0.0757
     59 H27        -6.0221   -5.8355    0.9714 H         1 <0>         0.4247
     60 H28       -10.8742   -6.4549   -1.9502 H         1 <0>         0.2093
@<TRIPOS>BOND
     1    1    2 1
     2    1   34 1
     3    1   35 1
     4    1   36 1
     5    2    7 am
     6    2    3 1
     7    3    4 1
     8    3   37 1
     9    3   38 1
    10    4    5 1
    11    4   10 1
    12    4   39 1
    13    5    6 1
    14    5   40 1
    15    5   41 1
    16    6    7 am
    17    6    9 1
    18    7    8 2
    19    9   42 1
    20    9   43 1
    21    9   44 1
    22   10   15 ar
    23   10   11 ar
    24   11   12 ar
    25   11   45 1
    26   12   13 ar
    27   12   46 1
    28   13   14 ar
    29   13   23 1
    30   14   15 ar
    31   14   16 1
    32   15   47 1
    33   16   22 1
    34   16   17 2
    35   17   18 1
    36   17   48 1
    37   18   19 1
    38   18   49 1
    39   18   50 1
    40   19   20 1
    41   19   51 1
    42   19   52 1
    43   20   21 1
    44   20   53 1
    45   20   54 1
    46   21   22 1
    47   21   55 1
    48   21   56 1
    49   22   57 1
    50   22   58 1
    51   23   24 am
    52   23   59 1
    53   24   25 2
    54   24   26 1
    55   26   31 2
    56   26   27 1
    57   27   28 1
    58   27   29 1
    59   29   30 2
    60   29   60 1
    61   30   31 1
    62   30   32 1
    63   32   33 3
@<TRIPOS>MOLECULE
CHEMBL1171607
   57    60     0     0     0
SMALL
USER_CHARGES

@<TRIPOS>ATOM
      1 C1          0.0240    1.4140   -0.0017 C.3       1 <0>         0.0989
      2 N1          0.0330   -0.0509   -0.0089 N.pl3     1 <0>        -1.0088
      3 C2         -1.2189   -0.8270   -0.0053 C.3       1 <0>         0.1181
      4 C3         -1.2094   -1.7941    1.1783 C.3       1 <0>        -0.0865
      5 C4         -0.0960   -2.8294    1.0214 C.3       1 <0>         0.1190
      6 N2          1.2098   -2.1495    1.0672 N.pl3     1 <0>        -1.0083
      7 S1          1.4611   -0.9119   -0.0285 S.o2      1 <0>         2.7804
      8 O1          2.4640   -0.0675    0.5196 O.2       1 <0>        -0.9791
      9 O2          1.5715   -1.5060   -1.3146 O.2       1 <0>        -0.9716
     10 C5          2.2432   -2.5435    2.0280 C.3       1 <0>         0.0969
     11 C6         -2.5381   -2.5013    1.2522 C.ar      1 <0>        -0.1103
     12 C7         -2.9656   -3.2776    0.1885 C.ar      1 <0>        -0.0937
     13 C8         -4.1816   -3.9306    0.2448 C.ar      1 <0>        -0.1214
     14 C9         -4.9831   -3.8113    1.3710 C.ar      1 <0>         0.1824
     15 C10        -4.5529   -3.0265    2.4496 C.ar      1 <0>        -0.0826
     16 C11        -3.3203   -2.3768    2.3817 C.ar      1 <0>        -0.0763
     17 C12        -5.3976   -2.8922    3.6537 C.2       1 <0>        -0.0938
     18 C13        -6.4595   -2.1256    3.5805 C.2       1 <0>        -0.1222
     19 C14        -7.4008   -1.8899    4.7256 C.3       1 <0>        -0.0884
     20 C15        -7.2026   -2.9616    5.7996 C.3       1 <0>        -0.1224
     21 C16        -5.7050   -3.0646    6.1136 C.3       1 <0>        -0.1167
     22 C17        -4.9941   -3.6457    4.8875 C.3       1 <0>        -0.0754
     23 N3         -6.2124   -4.4695    1.4294 N.am      1 <0>        -0.6635
     24 C18        -6.9530   -4.6142    0.3127 C.2       1 <0>         0.6278
     25 O3         -6.5147   -4.2447   -0.7597 O.2       1 <0>        -0.5299
     26 C19        -8.2954   -5.2209    0.3913 C.2       1 <0>         0.0488
     27 N4         -8.9004   -5.6689    1.5338 N.2       1 <0>        -0.5290
     28 C20       -10.1126   -6.1503    1.1895 C.2       1 <0>        -0.0068
     29 C21       -10.2345   -5.9881   -0.1769 C.2       1 <0>        -0.0432
     30 N5         -9.1065   -5.4136   -0.6222 N.2       1 <0>        -0.4516
     31 C22       -11.3640   -6.3611   -0.9743 C.1       1 <0>         0.3321
     32 N6        -12.2600   -6.6571   -1.6068 N.1       1 <0>        -0.4919
     33 H1          1.0493    1.7837   -0.0110 H         1 <0>         0.0797
     34 H2         -0.5017    1.7784   -0.8843 H         1 <0>         0.0641
     35 H3         -0.4824    1.7698    0.8955 H         1 <0>         0.0633
     36 H4         -2.0674   -0.1488    0.0857 H         1 <0>         0.0979
     37 H5         -1.3006   -1.3904   -0.9349 H         1 <0>         0.0803
     38 H6         -1.0505   -1.2328    2.0991 H         1 <0>         0.0949
     39 H7         -0.1571   -3.5552    1.8323 H         1 <0>         0.0974
     40 H8         -0.2068   -3.3409    0.0653 H         1 <0>         0.0794
     41 H9          2.8742   -3.3151    1.5869 H         1 <0>         0.0545
     42 H10         2.8531   -1.6764    2.2815 H         1 <0>         0.0781
     43 H11         1.7712   -2.9320    2.9304 H         1 <0>         0.0757
     44 H12        -2.3450   -3.3729   -0.6903 H         1 <0>         0.1234
     45 H13        -4.5089   -4.5342   -0.5888 H         1 <0>         0.1447
     46 H14        -2.9808   -1.7735    3.2106 H         1 <0>         0.1221
     47 H15        -6.6686   -1.6349    2.6414 H         1 <0>         0.1026
     48 H16        -7.2077   -0.9072    5.1558 H         1 <0>         0.0706
     49 H17        -8.4279   -1.9277    4.3627 H         1 <0>         0.0749
     50 H18        -7.7475   -2.6817    6.7012 H         1 <0>         0.0619
     51 H19        -7.5664   -3.9208    5.4313 H         1 <0>         0.0705
     52 H20        -5.3085   -2.0739    6.3362 H         1 <0>         0.0617
     53 H21        -5.5546   -3.7231    6.9690 H         1 <0>         0.0632
     54 H22        -5.2628   -4.6959    4.7735 H         1 <0>         0.0738
     55 H23        -3.9159   -3.5635    5.0246 H         1 <0>         0.0688
     56 H24        -6.5338   -4.8229    2.2736 H         1 <0>         0.4186
     57 H25       -10.8470   -6.5801    1.8546 H         1 <0>         0.1472
@<TRIPOS>BOND
     1    1    2 1
     2    1   33 1
     3    1   34 1
     4    1   35 1
     5    2    7 1
     6    2    3 1
     7    3    4 1
     8    3   36 1
     9    3   37 1
    10    4    5 1
    11    4   11 1
    12    4   38 1
    13    5    6 1
    14    5   39 1
    15    5   40 1
    16    6    7 1
    17    6   10 1
    18    7    8 2
    19    7    9 2
    20   10   41 1
    21   10   42 1
    22   10   43 1
    23   11   16 ar
    24   11   12 ar
    25   12   13 ar
    26   12   44 1
    27   13   14 ar
    28   13   45 1
    29   14   15 ar
    30   14   23 1
    31   15   16 ar
    32   15   17 1
    33   16   46 1
    34   17   22 1
    35   17   18 2
    36   18   19 1
    37   18   47 1
    38   19   20 1
    39   19   48 1
    40   19   49 1
    41   20   21 1
    42   20   50 1
    43   20   51 1
    44   21   22 1
    45   21   52 1
    46   21   53 1
    47   22   54 1
    48   22   55 1
    49   23   24 am
    50   23   56 1
    51   24   25 2
    52   24   26 1
    53   26   30 2
    54   26   27 1
    55   27   28 1
    56   28   29 2
    57   28   57 1
    58   29   30 1
    59   29   31 1
    60   31   32 3
@<TRIPOS>MOLECULE
CHEMBL1171607__1
   58    61     0     0     0
SMALL
USER_CHARGES

@<TRIPOS>ATOM
      1 C1          0.0240    1.4140   -0.0017 C.3       1 <0>         0.0977
      2 N1          0.0330   -0.0509   -0.0089 N.pl3     1 <0>        -1.0087
      3 C2         -1.2189   -0.8270   -0.0053 C.3       1 <0>         0.1195
      4 C3         -1.2094   -1.7940    1.1783 C.3       1 <0>        -0.0945
      5 C4         -0.0960   -2.8294    1.0214 C.3       1 <0>         0.1198
      6 N2          1.2098   -2.1495    1.0672 N.pl3     1 <0>        -1.0080
      7 S1          1.4611   -0.9119   -0.0285 S.o2      1 <0>         2.7789
      8 O1          2.4640   -0.0675    0.5196 O.2       1 <0>        -0.9735
      9 O2          1.5715   -1.5060   -1.3146 O.2       1 <0>        -0.9697
     10 C5          2.2432   -2.5435    2.0280 C.3       1 <0>         0.0954
     11 C6         -2.5381   -2.5013    1.2522 C.ar      1 <0>        -0.0860
     12 C7         -2.9656   -3.2776    0.1885 C.ar      1 <0>        -0.0954
     13 C8         -4.1816   -3.9306    0.2448 C.ar      1 <0>        -0.1122
     14 C9         -4.9831   -3.8113    1.3710 C.ar      1 <0>         0.1526
     15 C10        -4.5529   -3.0265    2.4496 C.ar      1 <0>        -0.0631
     16 C11        -3.3203   -2.3768    2.3817 C.ar      1 <0>        -0.0772
     17 C12        -5.3976   -2.8922    3.6537 C.2       1 <0>        -0.0990
     18 C13        -6.4595   -2.1256    3.5805 C.2       1 <0>        -0.1215
     19 C14        -7.4008   -1.8899    4.7256 C.3       1 <0>        -0.0913
     20 C15        -7.2026   -2.9616    5.7996 C.3       1 <0>        -0.1226
     21 C16        -5.7050   -3.0646    6.1136 C.3       1 <0>        -0.1196
     22 C17        -4.9941   -3.6457    4.8875 C.3       1 <0>        -0.0770
     23 N3         -6.2124   -4.4695    1.4294 N.am      1 <0>        -0.6399
     24 C18        -6.9530   -4.6142    0.3127 C.2       1 <0>         0.6111
     25 O3         -6.5147   -4.2447   -0.7597 O.2       1 <0>        -0.5123
     26 C19        -8.2954   -5.2209    0.3913 C.2       1 <0>         0.1596
     27 N4         -9.1388   -5.4267   -0.6662 N.pl3     1 <0>        -0.5110
     28 H1         -8.9619   -5.2015   -1.5930 H         1 <0>         0.4429
     29 C20       -10.2609   -6.0005   -0.1851 C.2       1 <0>         0.0649
     30 C21       -10.0866   -6.1397    1.1782 C.2       1 <0>         0.0603
     31 N5         -8.8732   -5.6562    1.4863 N.2       1 <0>        -0.4018
     32 C22       -11.0293   -6.7034    2.0970 C.1       1 <0>         0.2939
     33 N6        -11.7771   -7.1506    2.8258 N.1       1 <0>        -0.3919
     34 H2          1.0493    1.7837   -0.0110 H         1 <0>         0.0823
     35 H3         -0.5017    1.7784   -0.8843 H         1 <0>         0.0649
     36 H4         -0.4825    1.7698    0.8955 H         1 <0>         0.0639
     37 H5         -2.0674   -0.1488    0.0857 H         1 <0>         0.0975
     38 H6         -1.3006   -1.3904   -0.9349 H         1 <0>         0.0798
     39 H7         -1.0505   -1.2328    2.0991 H         1 <0>         0.0993
     40 H8         -0.1571   -3.5552    1.8323 H         1 <0>         0.0976
     41 H9         -0.2068   -3.3409    0.0653 H         1 <0>         0.0792
     42 H10         2.8742   -3.3151    1.5869 H         1 <0>         0.0565
     43 H11         2.8531   -1.6764    2.2815 H         1 <0>         0.0804
     44 H12         1.7712   -2.9320    2.9304 H         1 <0>         0.0760
     45 H13        -2.3450   -3.3729   -0.6903 H         1 <0>         0.1303
     46 H14        -4.5089   -4.5342   -0.5888 H         1 <0>         0.1438
     47 H15        -2.9808   -1.7735    3.2106 H         1 <0>         0.1297
     48 H16        -6.6686   -1.6349    2.6414 H         1 <0>         0.1027
     49 H17        -7.2077   -0.9072    5.1558 H         1 <0>         0.0762
     50 H18        -8.4279   -1.9277    4.3627 H         1 <0>         0.0738
     51 H19        -7.7475   -2.6817    6.7012 H         1 <0>         0.0659
     52 H20        -7.5664   -3.9208    5.4313 H         1 <0>         0.0668
     53 H21        -5.3085   -2.0739    6.3362 H         1 <0>         0.0653
     54 H22        -5.5546   -3.7231    6.9690 H         1 <0>         0.0673
     55 H23        -5.2628   -4.6959    4.7735 H         1 <0>         0.0738
     56 H24        -3.9159   -3.5635    5.0246 H         1 <0>         0.0729
     57 H25        -6.5338   -4.8229    2.2736 H         1 <0>         0.4246
     58 H26       -11.1290   -6.2946   -0.7562 H         1 <0>         0.2093
@<TRIPOS>BOND
     1    1    2 1
     2    1   34 1
     3    1   35 1
     4    1   36 1
     5    2    7 1
     6    2    3 1
     7    3    4 1
     8    3   37 1
     9    3   38 1
    10    4    5 1
    11    4   11 1
    12    4   39 1
    13    5    6 1
    14    5   40 1
    15    5   41 1
    16    6    7 1
    17    6   10 1
    18    7    8 2
    19    7    9 2
    20   10   42 1
    21   10   43 1
    22   10   44 1
    23   11   16 ar
    24   11   12 ar
    25   12   13 ar
    26   12   45 1
    27   13   14 ar
    28   13   46 1
    29   14   15 ar
    30   14   23 1
    31   15   16 ar
    32   15   17 1
    33   16   47 1
    34   17   22 1
    35   17   18 2
    36   18   19 1
    37   18   48 1
    38   19   20 1
    39   19   49 1
    40   19   50 1
    41   20   21 1
    42   20   51 1
    43   20   52 1
    44   21   22 1
    45   21   53 1
    46   21   54 1
    47   22   55 1
    48   22   56 1
    49   23   24 am
    50   23   57 1
    51   24   25 2
    52   24   26 1
    53   26   31 2
    54   26   27 1
    55   27   28 1
    56   27   29 1
    57   29   30 2
    58   29   58 1
    59   30   31 1
    60   30   32 1
    61   32   33 3
@<TRIPOS>MOLECULE
CHEMBL390156
   64    69     0     0     0
SMALL
USER_CHARGES

@<TRIPOS>ATOM
      1 C1         -0.0178    1.4648    0.0101 C.3       1 <0>        -0.0459
      2 N1          0.0021   -0.0041    0.0020 N.4       1 <0>        -0.3885
      3 C2         -1.3761   -0.5122    0.0107 C.3       1 <0>        -0.0023
      4 C3         -1.3560   -2.0421   -0.0167 C.3       1 <0>         0.0248
      5 N2         -0.6244   -2.5407    1.1564 N.3       1 <0>        -0.5343
      6 C4          0.7499   -2.0201    1.1745 C.3       1 <0>         0.0187
      7 C5          0.7125   -0.4904    1.1921 C.3       1 <0>        -0.0023
      8 C6         -0.6316   -4.0091    1.1963 C.3       1 <0>         0.0983
      9 C7         -0.0938   -4.4782    2.5236 C.ar      1 <0>        -0.0832
     10 C8          1.2623   -4.7055    2.6779 C.ar      1 <0>        -0.1166
     11 C9          1.7629   -5.1349    3.8890 C.ar      1 <0>        -0.0926
     12 C10         0.8977   -5.3413    4.9667 C.ar      1 <0>        -0.0231
     13 C11        -0.4668   -5.1086    4.8001 C.ar      1 <0>        -0.0674
     14 C12        -0.9565   -4.6753    3.5879 C.ar      1 <0>        -0.0725
     15 C13        -1.1304   -5.4146    6.1204 C.3       1 <0>        -0.0108
     16 C14        -0.0193   -5.8412    7.0489 C.2       1 <0>        -0.2181
     17 C15         1.1508   -5.7901    6.3537 C.2       1 <0>         0.0927
     18 N3          2.1468   -6.1787    7.2054 N.pl3     1 <0>        -0.4529
     19 H1          3.0904   -6.2401    6.9891 H         1 <0>         0.4424
     20 N4          1.5658   -6.4719    8.4450 N.2       1 <0>        -0.2500
     21 C16         0.2680   -6.2702    8.3544 C.2       1 <0>         0.1609
     22 C17        -0.7212   -6.4632    9.4449 C.2       1 <0>        -0.0530
     23 C18        -0.5590   -7.4782   10.3747 C.2       1 <0>        -0.1011
     24 C19        -1.4951   -7.6194   11.3635 C.2       1 <0>        -0.0553
     25 S1         -2.6378   -6.3001   10.9903 S.3       1 <0>         0.1156
     26 C20        -1.8082   -5.6388    9.5549 C.2       1 <0>        -0.1447
     27 C21        -1.5448   -8.5793   12.4250 C.1       1 <0>        -0.0723
     28 C22        -1.5855   -9.3663   13.2952 C.1       1 <0>        -0.1267
     29 C23        -1.6366  -10.3530   14.3864 C.3       1 <0>         0.1772
     30 O1         -2.7996  -10.1215   15.1838 O.3       1 <0>        -0.3105
     31 C24        -2.9979  -10.9519   16.2412 C.ar      1 <0>         0.1266
     32 C25        -2.0887  -11.9649   16.5092 C.ar      1 <0>        -0.2099
     33 C26        -2.2923  -12.8073   17.5850 C.ar      1 <0>        -0.0791
     34 C27        -3.4012  -12.6418   18.3940 C.ar      1 <0>        -0.1550
     35 C28        -4.3091  -11.6332   18.1288 C.ar      1 <0>        -0.0792
     36 C29        -4.1068  -10.7843   17.0579 C.ar      1 <0>        -0.1490
     37 H2          1.0047    1.8421    0.0024 H         1 <0>         0.1240
     38 H3         -0.5450    1.8259   -0.8730 H         1 <0>         0.1245
     39 H4         -0.5280    1.8163    0.9069 H         1 <0>         0.1232
     40 H5         -1.8832   -0.1716    0.9134 H         1 <0>         0.1379
     41 H6         -1.9060   -0.1400   -0.8661 H         1 <0>         0.1363
     42 H7         -2.3783   -2.4196    0.0047 H         1 <0>         0.1252
     43 H8         -0.8610   -2.3831   -0.9260 H         1 <0>         0.0616
     44 H9          1.2641   -2.3816    2.0650 H         1 <0>         0.1266
     45 H10         1.2796   -2.3607    0.2848 H         1 <0>         0.0612
     46 H11         1.7310   -0.1020    1.1912 H         1 <0>         0.1352
     47 H12         0.1947   -0.1499    2.0888 H         1 <0>         0.1376
     48 H13        -1.6519   -4.3710    1.0694 H         1 <0>         0.0999
     49 H14        -0.0057   -4.3975    0.3929 H         1 <0>         0.0584
     50 H15         1.9320   -4.5463    1.8456 H         1 <0>         0.1245
     51 H16         2.8220   -5.3116    4.0043 H         1 <0>         0.1261
     52 H17        -2.0141   -4.4930    3.4667 H         1 <0>         0.1328
     53 H18        -1.6240   -4.5237    6.5088 H         1 <0>         0.1014
     54 H19        -1.8517   -6.2230    6.0005 H         1 <0>         0.1046
     55 H20         0.2890   -8.1448   10.3200 H         1 <0>         0.1449
     56 H21        -2.0917   -4.8030    8.9324 H         1 <0>         0.1947
     57 H22        -1.6784  -11.3578   13.9659 H         1 <0>         0.0959
     58 H23        -0.7456  -10.2554   15.0065 H         1 <0>         0.0952
     59 H24        -1.2227  -12.0950   15.8772 H         1 <0>         0.1293
     60 H25        -1.5848  -13.5961   17.7941 H         1 <0>         0.1272
     61 H26        -3.5588  -13.3016   19.2344 H         1 <0>         0.1259
     62 H27        -5.1747  -11.5062   18.7620 H         1 <0>         0.1314
     63 H28        -4.8139   -9.9939   16.8537 H         1 <0>         0.1314
     64 H29         0.4748   -0.3293   -0.8280 H         1 <0>         0.4223
@<TRIPOS>BOND
     1    1    2 1
     2    1   37 1
     3    1   38 1
     4    1   39 1
     5    2    7 1
     6    2    3 1
     7    2   64 1
     8    3    4 1
     9    3   40 1
    10    3   41 1
    11    4    5 1
    12    4   42 1
    13    4   43 1
    14    5    6 1
    15    5    8 1
    16    6    7 1
    17    6   44 1
    18    6   45 1
    19    7   46 1
    20    7   47 1
    21    8    9 1
    22    8   48 1
    23    8   49 1
    24    9   14 ar
    25    9   10 ar
    26   10   11 ar
    27   10   50 1
    28   11   12 ar
    29   11   51 1
    30   12   17 1
    31   12   13 ar
    32   13   14 ar
    33   13   15 1
    34   14   52 1
    35   15   16 1
    36   15   53 1
    37   15   54 1
    38   16   21 1
    39   16   17 2
    40   17   18 1
    41   18   19 1
    42   18   20 1
    43   20   21 2
    44   21   22 1
    45   22   26 2
    46   22   23 1
    47   23   24 2
    48   23   55 1
    49   24   25 1
    50   24   27 1
    51   25   26 1
    52   26   56 1
    53   27   28 3
    54   28   29 1
    55   29   30 1
    56   29   57 1
    57   29   58 1
    58   30   31 1
    59   31   36 ar
    60   31   32 ar
    61   32   33 ar
    62   32   59 1
    63   33   34 ar
    64   33   60 1
    65   34   35 ar
    66   34   61 1
    67   35   36 ar
    68   35   62 1
    69   36   63 1
@<TRIPOS>MOLECULE
CHEMBL390156__1
   64    69     0     0     0
SMALL
USER_CHARGES

@<TRIPOS>ATOM
      1 C1         -0.0178    1.4648    0.0101 C.3       1 <0>        -0.0458
      2 N1          0.0021   -0.0041    0.0020 N.4       1 <0>        -0.3884
      3 C2         -1.3761   -0.5122    0.0107 C.3       1 <0>        -0.0023
      4 C3         -1.3560   -2.0421   -0.0167 C.3       1 <0>         0.0248
      5 N2         -0.6244   -2.5407    1.1564 N.3       1 <0>        -0.5343
      6 C4          0.7499   -2.0201    1.1745 C.3       1 <0>         0.0185
      7 C5          0.7125   -0.4904    1.1921 C.3       1 <0>        -0.0025
      8 C6         -0.6316   -4.0091    1.1963 C.3       1 <0>         0.0990
      9 C7         -0.0938   -4.4782    2.5236 C.ar      1 <0>        -0.0837
     10 C8          1.2620   -4.7055    2.6780 C.ar      1 <0>        -0.1192
     11 C9          1.7607   -5.1345    3.8904 C.ar      1 <0>        -0.0833
     12 C10         0.8957   -5.3405    4.9666 C.ar      1 <0>        -0.0044
     13 C11        -0.4666   -5.1093    4.8021 C.ar      1 <0>        -0.0686
     14 C12        -0.9558   -4.6753    3.5874 C.ar      1 <0>        -0.0763
     15 C13        -1.1468   -5.4115    6.1149 C.3       1 <0>        -0.0004
     16 C14        -0.0552   -5.8414    7.0633 C.2       1 <0>        -0.2341
     17 C15         1.1578   -5.7919    6.3569 C.2       1 <0>         0.0861
     18 N3          2.1219   -6.1666    7.1764 N.2       1 <0>        -0.2499
     19 H1          2.0356   -6.7641    9.2097 H         1 <0>         0.4475
     20 N4          1.5557   -6.4642    8.4219 N.pl3     1 <0>        -0.4573
     21 C16         0.2108   -6.2575    8.3325 C.2       1 <0>         0.1743
     22 C17        -0.7787   -6.4499    9.4165 C.2       1 <0>        -0.0781
     23 C18        -0.5289   -5.9750   10.6962 C.2       1 <0>        -0.1220
     24 C19        -1.4722   -6.1750   11.6669 C.2       1 <0>        -0.0484
     25 S1         -2.7485   -7.0505   10.7781 S.3       1 <0>         0.1362
     26 C20        -1.9634   -7.0960    9.1759 C.2       1 <0>        -0.1383
     27 C21        -1.4426   -5.7830   13.0439 C.1       1 <0>        -0.0789
     28 C22        -1.4183   -5.4616   14.1728 C.1       1 <0>        -0.1180
     29 C23        -1.3878   -5.0587   15.5882 C.3       1 <0>         0.1758
     30 O1         -2.5938   -5.4790   16.2292 O.3       1 <0>        -0.3103
     31 C24        -2.7267   -5.1829   17.5489 C.ar      1 <0>         0.1256
     32 C25        -1.7195   -4.4969   18.2119 C.ar      1 <0>        -0.2098
     33 C26        -1.8571   -4.1967   19.5533 C.ar      1 <0>        -0.0792
     34 C27        -2.9972   -4.5799   20.2352 C.ar      1 <0>        -0.1540
     35 C28        -4.0023   -5.2641   19.5768 C.ar      1 <0>        -0.0787
     36 C29        -3.8722   -5.5612   18.2340 C.ar      1 <0>        -0.1481
     37 H2          1.0047    1.8421    0.0024 H         1 <0>         0.1239
     38 H3         -0.5450    1.8259   -0.8730 H         1 <0>         0.1241
     39 H4         -0.5280    1.8163    0.9069 H         1 <0>         0.1230
     40 H5         -1.8832   -0.1716    0.9134 H         1 <0>         0.1377
     41 H6         -1.9060   -0.1400   -0.8661 H         1 <0>         0.1358
     42 H7         -2.3783   -2.4196    0.0047 H         1 <0>         0.1248
     43 H8         -0.8610   -2.3831   -0.9260 H         1 <0>         0.0613
     44 H9          1.2641   -2.3816    2.0650 H         1 <0>         0.1277
     45 H10         1.2796   -2.3607    0.2848 H         1 <0>         0.0613
     46 H11         1.7310   -0.1020    1.1912 H         1 <0>         0.1353
     47 H12         0.1947   -0.1499    2.0888 H         1 <0>         0.1375
     48 H13        -1.6519   -4.3710    1.0694 H         1 <0>         0.0991
     49 H14        -0.0057   -4.3975    0.3929 H         1 <0>         0.0582
     50 H15         1.9324   -4.5469    1.8463 H         1 <0>         0.1242
     51 H16         2.8197   -5.3112    4.0069 H         1 <0>         0.1297
     52 H17        -2.0134   -4.4932    3.4656 H         1 <0>         0.1309
     53 H18        -1.6430   -4.5184    6.4945 H         1 <0>         0.0967
     54 H19        -1.8708   -6.2160    5.9856 H         1 <0>         0.0966
     55 H20         0.3920   -5.4579   10.9215 H         1 <0>         0.1402
     56 H21        -2.3277   -7.5242    8.2538 H         1 <0>         0.1980
     57 H22        -0.5337   -5.5240   16.0802 H         1 <0>         0.0961
     58 H23        -1.2994   -3.9743   15.6555 H         1 <0>         0.0958
     59 H24        -0.8284   -4.1980   17.6799 H         1 <0>         0.1288
     60 H25        -1.0733   -3.6627   20.0699 H         1 <0>         0.1273
     61 H26        -3.1028   -4.3446   21.2840 H         1 <0>         0.1264
     62 H27        -4.8917   -5.5626   20.1118 H         1 <0>         0.1321
     63 H28        -4.6594   -6.0918   17.7191 H         1 <0>         0.1319
     64 H29         0.4748   -0.3293   -0.8280 H         1 <0>         0.4222
@<TRIPOS>BOND
     1    1    2 1
     2    1   37 1
     3    1   38 1
     4    1   39 1
     5    2    7 1
     6    2    3 1
     7    2   64 1
     8    3    4 1
     9    3   40 1
    10    3   41 1
    11    4    5 1
    12    4   42 1
    13    4   43 1
    14    5    6 1
    15    5    8 1
    16    6    7 1
    17    6   44 1
    18    6   45 1
    19    7   46 1
    20    7   47 1
    21    8    9 1
    22    8   48 1
    23    8   49 1
    24    9   14 ar
    25    9   10 ar
    26   10   11 ar
    27   10   50 1
    28   11   12 ar
    29   11   51 1
    30   12   13 ar
    31   12   17 1
    32   13   14 ar
    33   13   15 1
    34   14   52 1
    35   15   53 1
    36   15   54 1
    37   15   16 1
    38   16   17 1
    39   16   21 2
    40   17   18 2
    41   18   20 1
    42   19   20 1
    43   20   21 1
    44   21   22 1
    45   22   26 2
    46   22   23 1
    47   23   24 2
    48   23   55 1
    49   24   25 1
    50   24   27 1
    51   25   26 1
    52   26   56 1
    53   27   28 3
    54   28   29 1
    55   29   30 1
    56   29   57 1
    57   29   58 1
    58   30   31 1
    59   31   36 ar
    60   31   32 ar
    61   32   33 ar
    62   32   59 1
    63   33   34 ar
    64   33   60 1
    65   34   35 ar
    66   34   61 1
    67   35   36 ar
    68   35   62 1
    69   36   63 1
@<TRIPOS>MOLECULE
CHEMBL223971
   52    56     0     0     0
SMALL
USER_CHARGES

@<TRIPOS>ATOM
      1 C1         -0.0173    1.4248    0.0099 C.3       1 <0>         0.0305
      2 O1          0.0021   -0.0041    0.0020 O.3       1 <0>        -0.3846
      3 C2          0.6518   -0.5703   -1.1379 C.3       1 <0>         0.0609
      4 C3          0.6131   -2.0967   -1.0411 C.3       1 <0>         0.0634
      5 O2         -0.7418   -2.5446   -1.1169 O.3       1 <0>        -0.3742
      6 C4         -0.8903   -3.9635   -1.0357 C.3       1 <0>         0.1773
      7 C5         -2.3174   -4.3134   -1.1235 C.1       1 <0>        -0.1231
      8 C6         -3.4556   -4.5924   -1.1936 C.1       1 <0>        -0.0827
      9 C7         -4.8440   -4.9327   -1.2791 C.2       1 <0>        -0.0538
     10 C8         -5.9250   -4.1053   -1.4232 C.2       1 <0>        -0.1033
     11 C9         -7.1902   -4.6681   -1.4840 C.2       1 <0>        -0.0488
     12 C10        -7.3090   -6.0289   -1.3975 C.2       1 <0>        -0.1443
     13 S1         -5.6083   -6.5449   -1.2330 S.3       1 <0>         0.1044
     14 C11        -8.3932   -3.8115   -1.6393 C.2       1 <0>         0.1594
     15 C12        -9.5521   -4.1428   -2.3592 C.2       1 <0>        -0.2245
     16 C13       -10.4223   -3.0994   -2.2627 C.2       1 <0>         0.1053
     17 N1         -9.8208   -2.1380   -1.4997 N.pl3     1 <0>        -0.4538
     18 H1        -10.2026   -1.2793   -1.2593 H         1 <0>         0.4418
     19 N2         -8.5593   -2.6128   -1.1210 N.2       1 <0>        -0.2557
     20 C14       -11.6634   -3.4034   -3.0087 C.ar      1 <0>        -0.0405
     21 C15       -12.8310   -2.6608   -3.2033 C.ar      1 <0>        -0.0549
     22 C16       -13.8612   -3.1839   -3.9560 C.ar      1 <0>        -0.1141
     23 C17       -13.7452   -4.4420   -4.5201 C.ar      1 <0>        -0.0833
     24 C18       -12.5918   -5.1838   -4.3320 C.ar      1 <0>        -0.1011
     25 C19       -11.5572   -4.6698   -3.5822 C.ar      1 <0>        -0.0582
     26 C20       -10.2027   -5.2143   -3.2001 C.3       1 <0>        -0.0097
     27 C21       -15.1197   -2.3817   -4.1649 C.3       1 <0>         0.1727
     28 N3        -14.9811   -1.5607   -5.3703 N.pl3     1 <0>        -0.3784
     29 C22       -15.8120   -1.5337   -6.4267 C.2       1 <0>         0.2541
     30 N4        -15.3408   -0.6730   -7.2920 N.2       1 <0>        -0.5453
     31 C23       -14.2156   -0.1329   -6.8254 C.2       1 <0>         0.1985
     32 N5        -13.9569   -0.6410   -5.6491 N.2       1 <0>        -0.3131
     33 H2          1.0053    1.8021    0.0021 H         1 <0>         0.0413
     34 H3         -0.5445    1.7859   -0.8732 H         1 <0>         0.0422
     35 H4         -0.5275    1.7763    0.9067 H         1 <0>         0.0872
     36 H5          0.1385   -0.2506   -2.0447 H         1 <0>         0.0594
     37 H6          1.6883   -0.2344   -1.1694 H         1 <0>         0.0678
     38 H7          1.1847   -2.5275   -1.8631 H         1 <0>         0.0704
     39 H8          1.0473   -2.4117   -0.0922 H         1 <0>         0.0638
     40 H9         -0.3498   -4.4331   -1.8576 H         1 <0>         0.0813
     41 H10        -0.4873   -4.3173   -0.0867 H         1 <0>         0.0823
     42 H11        -5.7947   -3.0351   -1.4880 H         1 <0>         0.1441
     43 H12        -8.2023   -6.6352   -1.4257 H         1 <0>         0.1953
     44 H13       -12.9265   -1.6786   -2.7644 H         1 <0>         0.1252
     45 H14       -14.5561   -4.8461   -5.1080 H         1 <0>         0.1312
     46 H15       -12.5034   -6.1658   -4.7728 H         1 <0>         0.1348
     47 H16        -9.6079   -5.4043   -4.0936 H         1 <0>         0.1027
     48 H17       -10.3154   -6.1306   -2.6206 H         1 <0>         0.1013
     49 H18       -15.9666   -3.0579   -4.2813 H         1 <0>         0.1146
     50 H19       -15.2862   -1.7359   -3.3027 H         1 <0>         0.0987
     51 H20       -16.7114   -2.1206   -6.5413 H         1 <0>         0.2192
     52 H21       -13.6167    0.6076   -7.3346 H         1 <0>         0.2160
@<TRIPOS>BOND
     1    1    2 1
     2    1   33 1
     3    1   34 1
     4    1   35 1
     5    2    3 1
     6    3    4 1
     7    3   36 1
     8    3   37 1
     9    4    5 1
    10    4   38 1
    11    4   39 1
    12    5    6 1
    13    6    7 1
    14    6   40 1
    15    6   41 1
    16    7    8 3
    17    8    9 1
    18    9   13 1
    19    9   10 2
    20   10   11 1
    21   10   42 1
    22   11   12 2
    23   11   14 1
    24   12   13 1
    25   12   43 1
    26   14   19 2
    27   14   15 1
    28   15   26 1
    29   15   16 2
    30   16   17 1
    31   16   20 1
    32   17   18 1
    33   17   19 1
    34   20   25 ar
    35   20   21 ar
    36   21   22 ar
    37   21   44 1
    38   22   23 ar
    39   22   27 1
    40   23   24 ar
    41   23   45 1
    42   24   25 ar
    43   24   46 1
    44   25   26 1
    45   26   47 1
    46   26   48 1
    47   27   28 1
    48   27   49 1
    49   27   50 1
    50   28   32 1
    51   28   29 1
    52   29   30 2
    53   29   51 1
    54   30   31 1
    55   31   32 2
    56   31   52 1
@<TRIPOS>MOLECULE
CHEMBL223971__1
   52    56     0     0     0
SMALL
USER_CHARGES

@<TRIPOS>ATOM
      1 C1         -0.0173    1.4248    0.0099 C.3       1 <0>         0.0304
      2 O1          0.0021   -0.0041    0.0020 O.3       1 <0>        -0.3852
      3 C2          0.6518   -0.5703   -1.1379 C.3       1 <0>         0.0608
      4 C3          0.6131   -2.0967   -1.0411 C.3       1 <0>         0.0635
      5 O2         -0.7418   -2.5446   -1.1169 O.3       1 <0>        -0.3747
      6 C4         -0.8903   -3.9635   -1.0357 C.3       1 <0>         0.1753
      7 C5         -2.3174   -4.3134   -1.1235 C.1       1 <0>        -0.1139
      8 C6         -3.4556   -4.5924   -1.1936 C.1       1 <0>        -0.0906
      9 C7         -4.8440   -4.9327   -1.2791 C.2       1 <0>        -0.0453
     10 C8         -5.9241   -4.1052   -1.4232 C.2       1 <0>        -0.1197
     11 C9         -7.1910   -4.6679   -1.4841 C.2       1 <0>        -0.0725
     12 C10        -7.3086   -6.0308   -1.3974 C.2       1 <0>        -0.1370
     13 S1         -5.6075   -6.5452   -1.2330 S.3       1 <0>         0.1162
     14 C11        -8.3904   -3.8142   -1.6389 C.2       1 <0>         0.1683
     15 C12        -9.4330   -4.0357   -2.4867 C.2       1 <0>        -0.2328
     16 C13       -10.3589   -2.9925   -2.3219 C.2       1 <0>         0.0968
     17 N1         -9.8869   -2.1704   -1.4038 N.2       1 <0>        -0.2519
     18 H1         -8.0918   -2.2606   -0.2777 H         1 <0>         0.4457
     19 N2         -8.6566   -2.6652   -0.9546 N.pl3     1 <0>        -0.4603
     20 C14       -11.5081   -3.2098   -3.2371 C.ar      1 <0>        -0.0218
     21 C15       -12.6688   -2.4628   -3.4459 C.ar      1 <0>        -0.0457
     22 C16       -13.6021   -2.8837   -4.3701 C.ar      1 <0>        -0.1171
     23 C17       -13.3926   -4.0448   -5.0924 C.ar      1 <0>        -0.0835
     24 C18       -12.2449   -4.7900   -4.8903 C.ar      1 <0>        -0.1048
     25 C19       -11.3058   -4.3764   -3.9683 C.ar      1 <0>        -0.0601
     26 C20        -9.9852   -4.9664   -3.5377 C.3       1 <0>        -0.0002
     27 C21       -14.8546   -2.0761   -4.5935 C.3       1 <0>         0.1730
     28 N3        -14.6164   -1.0870   -5.6476 N.pl3     1 <0>        -0.3774
     29 C22       -15.3352   -0.9177   -6.7710 C.2       1 <0>         0.2525
     30 N4        -14.8021    0.0657   -7.4496 N.2       1 <0>        -0.5463
     31 C23       -13.7464    0.5469   -6.7945 C.2       1 <0>         0.1967
     32 N5        -13.5954   -0.1232   -5.6824 N.2       1 <0>        -0.3098
     33 H2          1.0053    1.8021    0.0021 H         1 <0>         0.0418
     34 H3         -0.5445    1.7859   -0.8732 H         1 <0>         0.0423
     35 H4         -0.5275    1.7763    0.9067 H         1 <0>         0.0873
     36 H5          0.1385   -0.2506   -2.0447 H         1 <0>         0.0595
     37 H6          1.6883   -0.2344   -1.1694 H         1 <0>         0.0685
     38 H7          1.1847   -2.5275   -1.8631 H         1 <0>         0.0710
     39 H8          1.0473   -2.4117   -0.0922 H         1 <0>         0.0643
     40 H9         -0.3498   -4.4331   -1.8576 H         1 <0>         0.0828
     41 H10        -0.4873   -4.3173   -0.0867 H         1 <0>         0.0836
     42 H11        -5.7932   -3.0351   -1.4878 H         1 <0>         0.1407
     43 H12        -8.2014   -6.6380   -1.4254 H         1 <0>         0.1979
     44 H13       -12.8361   -1.5560   -2.8837 H         1 <0>         0.1288
     45 H14       -14.1264   -4.3701   -5.8150 H         1 <0>         0.1301
     46 H15       -12.0838   -5.6965   -5.4548 H         1 <0>         0.1329
     47 H16        -9.3039   -5.0193   -4.3870 H         1 <0>         0.0967
     48 H17       -10.1375   -5.9599   -3.1161 H         1 <0>         0.0960
     49 H18       -15.6657   -2.7393   -4.8942 H         1 <0>         0.1139
     50 H19       -15.1268   -1.5648   -3.6702 H         1 <0>         0.0994
     51 H20       -16.2011   -1.4934   -7.0626 H         1 <0>         0.2186
     52 H21       -13.1196    1.3613   -7.1264 H         1 <0>         0.2156
@<TRIPOS>BOND
     1    1    2 1
     2    1   33 1
     3    1   34 1
     4    1   35 1
     5    2    3 1
     6    3    4 1
     7    3   36 1
     8    3   37 1
     9    4    5 1
    10    4   38 1
    11    4   39 1
    12    5    6 1
    13    6    7 1
    14    6   40 1
    15    6   41 1
    16    7    8 3
    17    8    9 1
    18    9   13 1
    19    9   10 2
    20   10   11 1
    21   10   42 1
    22   11   12 2
    23   11   14 1
    24   12   13 1
    25   12   43 1
    26   14   15 2
    27   14   19 1
    28   15   16 1
    29   15   26 1
    30   16   17 2
    31   16   20 1
    32   17   19 1
    33   18   19 1
    34   20   25 ar
    35   20   21 ar
    36   21   22 ar
    37   21   44 1
    38   22   23 ar
    39   22   27 1
    40   23   24 ar
    41   23   45 1
    42   24   25 ar
    43   24   46 1
    44   25   26 1
    45   26   47 1
    46   26   48 1
    47   27   28 1
    48   27   49 1
    49   27   50 1
    50   28   32 1
    51   28   29 1
    52   29   30 2
    53   29   51 1
    54   30   31 1
    55   31   32 2
    56   31   52 1
@<TRIPOS>MOLECULE
CHEMBL450914
   75    80     0     0     0
SMALL
USER_CHARGES

@<TRIPOS>ATOM
      1 C1         -2.7579    0.4396    0.9686 C.3       1 <0>        -0.1889
      2 C2         -2.1349   -0.9499    0.8206 C.3       1 <0>        -0.0269
      3 N1         -0.9874   -1.0714    1.7297 N.4       1 <0>        -0.3776
      4 C3          0.0892   -0.1819    1.2778 C.3       1 <0>        -0.0134
      5 C4          0.4663   -0.5235   -0.1653 C.3       1 <0>        -0.1440
      6 C5          0.9416   -1.9777   -0.2324 C.3       1 <0>        -0.1571
      7 C6         -0.1616   -2.8906    0.3108 C.3       1 <0>         0.1711
      8 C7         -0.5154   -2.4613    1.7363 C.3       1 <0>         0.0073
      9 C8          0.3250   -4.3168    0.3209 C.ar      1 <0>        -0.1055
     10 C9          0.9647   -4.8205    1.4390 C.ar      1 <0>        -0.1309
     11 C10         1.4131   -6.1284    1.4522 C.ar      1 <0>        -0.0862
     12 C11         1.2234   -6.9364    0.3481 C.ar      1 <0>        -0.0953
     13 C12         0.5810   -6.4338   -0.7760 C.ar      1 <0>         0.1770
     14 C13         0.1267   -5.1210   -0.7839 C.ar      1 <0>        -0.1289
     15 N2          0.3877   -7.2488   -1.8955 N.pl3     1 <0>        -0.6299
     16 C14         0.1382   -8.5977   -1.7330 C.ar      1 <0>         0.6101
     17 N3         -0.0284   -9.0730   -0.5035 N.ar      1 <0>        -0.5698
     18 C15        -0.2693  -10.3556   -0.2958 C.ar      1 <0>         0.2862
     19 C16        -0.3454  -11.2051   -1.4009 C.ar      1 <0>        -0.3272
     20 C17        -0.6100  -12.6444   -1.2612 C.2       1 <0>         0.4541
     21 O1         -0.7747  -13.1580   -0.1683 O.2       1 <0>        -0.4762
     22 C18        -0.6678  -13.4386   -2.5013 C.2       1 <0>        -0.3038
     23 C19        -0.4742  -12.8034   -3.7085 C.2       1 <0>         0.2546
     24 N4         -0.2340  -11.4834   -3.7949 N.pl3     1 <0>        -0.4182
     25 C20        -0.1640  -10.6692   -2.6918 C.ar      1 <0>         0.4676
     26 N5          0.0689   -9.3665   -2.8088 N.ar      1 <0>        -0.5841
     27 C21        -0.0475  -10.9160   -5.0613 C.ar      1 <0>         0.0368
     28 C22         1.1835  -10.3734   -5.4202 C.ar      1 <0>        -0.0253
     29 C23         1.3205   -9.8229   -6.6845 C.ar      1 <0>        -0.1377
     30 C24         0.2405   -9.8275   -7.5482 C.ar      1 <0>         0.1430
     31 N6         -0.9146  -10.3516   -7.1724 N.ar      1 <0>        -0.4612
     32 C25        -1.0854  -10.8899   -5.9833 C.ar      1 <0>         0.1324
     33 C26         0.6358   -9.1763   -8.8578 C.3       1 <0>        -0.0768
     34 C27         1.9250   -8.3877   -8.5454 C.3       1 <0>        -0.1184
     35 C28         2.5110   -9.1701   -7.3507 C.3       1 <0>        -0.0799
     36 C29        -0.9273  -14.8861   -2.4509 C.2       1 <0>         0.5954
     37 O2         -1.0679  -15.5150   -3.4826 O.2       1 <0>        -0.5302
     38 N7         -1.0093  -15.5151   -1.2618 N.am      1 <0>        -0.5864
     39 O3         -1.1525  -16.9231   -1.2139 O.3       1 <0>        -0.1457
     40 C30        -1.2267  -17.4551    0.1103 C.3       1 <0>         0.0002
     41 O4         -1.3194   -2.7864   -0.5202 O.3       1 <0>        -0.5483
     42 H1         -2.0160    1.1987    0.7207 H         1 <0>         0.0756
     43 H2         -3.6094    0.5298    0.2941 H         1 <0>         0.1029
     44 H3         -3.0922    0.5803    1.9965 H         1 <0>         0.0749
     45 H4         -2.8768   -1.7090    1.0685 H         1 <0>         0.1266
     46 H5         -1.8007   -1.0906   -0.2073 H         1 <0>         0.1638
     47 H6         -0.2495    0.8529    1.3292 H         1 <0>         0.1330
     48 H7          0.9600   -0.3106    1.9206 H         1 <0>         0.1290
     49 H8         -0.4038   -0.3949   -0.8091 H         1 <0>         0.0950
     50 H9          1.2670    0.1368   -0.4983 H         1 <0>         0.1133
     51 H10         1.1577   -2.2432   -1.2672 H         1 <0>         0.0980
     52 H11         1.8418   -2.0952    0.3709 H         1 <0>         0.0958
     53 H12         0.3683   -2.5414    2.3693 H         1 <0>         0.1436
     54 H13        -1.3004   -3.1093    2.1261 H         1 <0>         0.1397
     55 H14         1.1146   -4.1908    2.3035 H         1 <0>         0.1239
     56 H15         1.9125   -6.5186    2.3267 H         1 <0>         0.1358
     57 H16         1.5744   -7.9576    0.3588 H         1 <0>         0.1410
     58 H17        -0.3767   -4.7284   -1.6550 H         1 <0>         0.1265
     59 H18         0.4289   -6.8671   -2.7862 H         1 <0>         0.4281
     60 H19        -0.4037  -10.7377    0.7053 H         1 <0>         0.1968
     61 H20        -0.5167  -13.3860   -4.6168 H         1 <0>         0.1952
     62 H21         2.0129  -10.3810   -4.7285 H         1 <0>         0.1367
     63 H22        -2.0444  -11.3113   -5.7204 H         1 <0>         0.1663
     64 H23         0.8315   -9.9365   -9.6140 H         1 <0>         0.0991
     65 H24        -0.1490   -8.4994   -9.1954 H         1 <0>         0.0919
     66 H25         2.6077   -8.4091   -9.3948 H         1 <0>         0.0896
     67 H26         1.6921   -7.3619   -8.2598 H         1 <0>         0.0773
     68 H27         3.0056   -8.4890   -6.6583 H         1 <0>         0.0813
     69 H28         3.2110   -9.9284   -7.7017 H         1 <0>         0.0908
     70 H29        -0.9702  -15.0034   -0.4387 H         1 <0>         0.4192
     71 H30        -1.3355  -18.5385    0.0610 H         1 <0>         0.1151
     72 H31        -0.3152  -17.2058    0.6536 H         1 <0>         0.0568
     73 H32        -2.0859  -17.0267    0.6263 H         1 <0>         0.0573
     74 H33        -1.1670   -3.0402   -1.4407 H         1 <0>         0.3947
     75 H34        -1.2691   -0.8085    2.6622 H         1 <0>         0.4238
@<TRIPOS>BOND
     1    1    2 1
     2    1   42 1
     3    1   43 1
     4    1   44 1
     5    2    3 1
     6    2   45 1
     7    2   46 1
     8    3    8 1
     9    3    4 1
    10    3   75 1
    11    4    5 1
    12    4   47 1
    13    4   48 1
    14    5    6 1
    15    5   49 1
    16    5   50 1
    17    6    7 1
    18    6   51 1
    19    6   52 1
    20    7    8 1
    21    7    9 1
    22    7   41 1
    23    8   53 1
    24    8   54 1
    25    9   14 ar
    26    9   10 ar
    27   10   11 ar
    28   10   55 1
    29   11   12 ar
    30   11   56 1
    31   12   13 ar
    32   12   57 1
    33   13   14 ar
    34   13   15 1
    35   14   58 1
    36   15   16 1
    37   15   59 1
    38   16   26 ar
    39   16   17 ar
    40   17   18 ar
    41   18   19 ar
    42   18   60 1
    43   19   25 ar
    44   19   20 1
    45   20   21 2
    46   20   22 1
    47   22   23 2
    48   22   36 1
    49   23   24 1
    50   23   61 1
    51   24   25 1
    52   24   27 1
    53   25   26 ar
    54   27   32 ar
    55   27   28 ar
    56   28   29 ar
    57   28   62 1
    58   29   35 1
    59   29   30 ar
    60   30   31 ar
    61   30   33 1
    62   31   32 ar
    63   32   63 1
    64   33   34 1
    65   33   64 1
    66   33   65 1
    67   34   35 1
    68   34   66 1
    69   34   67 1
    70   35   68 1
    71   35   69 1
    72   36   37 2
    73   36   38 am
    74   38   39 1
    75   38   70 1
    76   39   40 1
    77   40   71 1
    78   40   72 1
    79   40   73 1
    80   41   74 1
@<TRIPOS>MOLECULE
CHEMBL450914__1
   75    80     0     0     0
SMALL
USER_CHARGES

@<TRIPOS>ATOM
      1 C1          4.3089    1.4646    0.4833 C.3       1 <0>        -0.1887
      2 C2          3.3870    0.2436    0.4993 C.3       1 <0>        -0.0122
      3 N1          3.9247   -0.7639    1.4233 N.4       1 <0>        -0.3808
      4 C3          5.2155   -1.2481    0.9196 C.3       1 <0>        -0.0139
      5 C4          5.8184   -2.2379    1.9187 C.3       1 <0>        -0.1417
      6 C5          4.8622   -3.4207    2.0974 C.3       1 <0>        -0.1583
      7 C6          3.4968   -2.8965    2.5516 C.3       1 <0>         0.1697
      8 C7          2.9800   -1.8823    1.5290 C.3       1 <0>         0.0089
      9 C8          2.5264   -4.0447    2.6563 C.ar      1 <0>        -0.1060
     10 C9          1.7682   -4.4106    1.5590 C.ar      1 <0>        -0.1314
     11 C10         0.8763   -5.4631    1.6509 C.ar      1 <0>        -0.0862
     12 C11         0.7399   -6.1529    2.8398 C.ar      1 <0>        -0.0963
     13 C12         1.5001   -5.7884    3.9435 C.ar      1 <0>         0.1770
     14 C13         2.3993   -4.7340    3.8461 C.ar      1 <0>        -0.1296
     15 N2          1.3641   -6.4842    5.1485 N.pl3     1 <0>        -0.6293
     16 C14         1.0911   -7.8382    5.1373 C.ar      1 <0>         0.6098
     17 N3          1.0702   -8.4761    3.9719 N.ar      1 <0>        -0.5699
     18 C15         0.8141   -9.7709    3.9085 C.ar      1 <0>         0.2863
     19 C16         0.5647  -10.4582    5.0977 C.ar      1 <0>        -0.3270
     20 C17         0.2718  -11.8987    5.1190 C.2       1 <0>         0.4536
     21 O1          0.2345  -12.5557    4.0932 O.2       1 <0>        -0.4753
     22 C18         0.0258  -12.5131    6.4357 C.2       1 <0>        -0.3032
     23 C19         0.0816  -11.7203    7.5613 C.2       1 <0>         0.2529
     24 N4          0.3525  -10.4048    7.5003 N.pl3     1 <0>        -0.4168
     25 C20         0.5944   -9.7522    6.3171 C.ar      1 <0>         0.4670
     26 N5          0.8657   -8.4519    6.2887 N.ar      1 <0>        -0.5847
     27 C21         0.3894   -9.6707    8.6921 C.ar      1 <0>         0.0374
     28 C22        -0.4718   -8.5944    8.8880 C.ar      1 <0>        -0.0239
     29 C23        -0.3986   -7.8977   10.0836 C.ar      1 <0>        -0.1373
     30 C24         0.5195   -8.2869   11.0416 C.ar      1 <0>         0.1413
     31 N6          1.3227   -9.3146   10.8203 N.ar      1 <0>        -0.4602
     32 C25         1.2817  -10.0069    9.7014 C.ar      1 <0>         0.1289
     33 C26         0.4074   -7.3795   12.2497 C.3       1 <0>        -0.0766
     34 C27        -0.3629   -6.1376   11.7536 C.3       1 <0>        -0.1185
     35 C28        -1.1874   -6.7062   10.5790 C.3       1 <0>        -0.0795
     36 C29        -0.2750  -13.9492    6.5465 C.2       1 <0>         0.5956
     37 O2         -0.5793  -14.4255    7.6236 O.2       1 <0>        -0.5298
     38 N7         -0.2134  -14.7368    5.4546 N.am      1 <0>        -0.5857
     39 O3         -0.6131  -16.0927    5.5362 O.3       1 <0>        -0.1453
     40 C30        -0.4955  -16.8085    4.3049 C.3       1 <0>         0.0002
     41 O4          3.6285   -2.2642    3.8263 O.3       1 <0>        -0.5577
     42 H1          5.3038    1.1643    0.1545 H         1 <0>         0.0806
     43 H2          3.9099    2.2121   -0.2023 H         1 <0>         0.1071
     44 H3          4.3698    1.8871    1.4862 H         1 <0>         0.0809
     45 H4          2.3920    0.5439    0.8281 H         1 <0>         0.1309
     46 H5          3.3261   -0.1789   -0.5036 H         1 <0>         0.1292
     47 H6          5.0676   -1.7451   -0.0392 H         1 <0>         0.1288
     48 H7          5.8939   -0.4049    0.7899 H         1 <0>         0.1344
     49 H8          6.7759   -2.5977    1.5421 H         1 <0>         0.1144
     50 H9          5.9670   -1.7419    2.8779 H         1 <0>         0.0936
     51 H10         4.7533   -3.9478    1.1495 H         1 <0>         0.0949
     52 H11         5.2604   -4.1008    2.8504 H         1 <0>         0.0978
     53 H12         2.0080   -1.5073    1.8493 H         1 <0>         0.1397
     54 H13         2.8797   -2.3657    0.5572 H         1 <0>         0.1430
     55 H14         1.8727   -3.8727    0.6283 H         1 <0>         0.1234
     56 H15         0.2855   -5.7461    0.7923 H         1 <0>         0.1358
     57 H16         0.0426   -6.9745    2.9112 H         1 <0>         0.1429
     58 H17         2.9948   -4.4506    4.7013 H         1 <0>         0.1264
     59 H18         1.4615   -6.0161    5.9925 H         1 <0>         0.4285
     60 H19         0.7977  -10.2852    2.9589 H         1 <0>         0.1971
     61 H20        -0.0988  -12.1713    8.5259 H         1 <0>         0.1954
     62 H21        -1.1808   -8.3087    8.1250 H         1 <0>         0.1367
     63 H22         1.9524  -10.8424    9.5652 H         1 <0>         0.1667
     64 H23        -0.1482   -7.8761   13.0452 H         1 <0>         0.0989
     65 H24         1.3988   -7.0939   12.6013 H         1 <0>         0.0919
     66 H25        -1.0172   -5.7501   12.5345 H         1 <0>         0.0894
     67 H26         0.3260   -5.3676   11.4064 H         1 <0>         0.0774
     68 H27        -1.2840   -5.9614    9.7891 H         1 <0>         0.0810
     69 H28        -2.1717   -7.0215   10.9253 H         1 <0>         0.0905
     70 H29         0.1048  -14.3748    4.6128 H         1 <0>         0.4188
     71 H30        -0.8209  -17.8385    4.4510 H         1 <0>         0.1151
     72 H31        -1.1199  -16.3341    3.5478 H         1 <0>         0.0576
     73 H32         0.5439  -16.7988    3.9769 H         1 <0>         0.0568
     74 H33         3.9556   -2.8489    4.5236 H         1 <0>         0.4017
     75 H34         4.0556   -0.3483    2.3334 H         1 <0>         0.4303
@<TRIPOS>BOND
     1    1    2 1
     2    1   42 1
     3    1   43 1
     4    1   44 1
     5    2    3 1
     6    2   45 1
     7    2   46 1
     8    3    8 1
     9    3    4 1
    10    3   75 1
    11    4    5 1
    12    4   47 1
    13    4   48 1
    14    5    6 1
    15    5   49 1
    16    5   50 1
    17    6    7 1
    18    6   51 1
    19    6   52 1
    20    7    8 1
    21    7    9 1
    22    7   41 1
    23    8   53 1
    24    8   54 1
    25    9   14 ar
    26    9   10 ar
    27   10   11 ar
    28   10   55 1
    29   11   12 ar
    30   11   56 1
    31   12   13 ar
    32   12   57 1
    33   13   14 ar
    34   13   15 1
    35   14   58 1
    36   15   16 1
    37   15   59 1
    38   16   26 ar
    39   16   17 ar
    40   17   18 ar
    41   18   19 ar
    42   18   60 1
    43   19   25 ar
    44   19   20 1
    45   20   21 2
    46   20   22 1
    47   22   23 2
    48   22   36 1
    49   23   24 1
    50   23   61 1
    51   24   25 1
    52   24   27 1
    53   25   26 ar
    54   27   32 ar
    55   27   28 ar
    56   28   29 ar
    57   28   62 1
    58   29   35 1
    59   29   30 ar
    60   30   31 ar
    61   30   33 1
    62   31   32 ar
    63   32   63 1
    64   33   34 1
    65   33   64 1
    66   33   65 1
    67   34   35 1
    68   34   66 1
    69   34   67 1
    70   35   68 1
    71   35   69 1
    72   36   37 2
    73   36   38 am
    74   38   39 1
    75   38   70 1
    76   39   40 1
    77   40   71 1
    78   40   72 1
    79   40   73 1
    80   41   74 1
@<TRIPOS>MOLECULE
CHEMBL448339
   76    81     0     0     0
SMALL
USER_CHARGES

@<TRIPOS>ATOM
      1 C1         -2.7607    0.4402    0.9651 C.3       1 <0>        -0.1889
      2 C2         -2.1374   -0.9493    0.8175 C.3       1 <0>        -0.0269
      3 N1         -0.9899   -1.0703    1.7267 N.4       1 <0>        -0.3776
      4 C3          0.0865   -0.1807    1.2747 C.3       1 <0>        -0.0134
      5 C4          0.4638   -0.5226   -0.1684 C.3       1 <0>        -0.1439
      6 C5          0.9393   -1.9768   -0.2350 C.3       1 <0>        -0.1572
      7 C6         -0.1636   -2.8897    0.3084 C.3       1 <0>         0.1713
      8 C7         -0.5176   -2.4600    1.7337 C.3       1 <0>         0.0072
      9 C8          0.3232   -4.3158    0.3189 C.ar      1 <0>        -0.1058
     10 C9          0.9630   -4.8191    1.4371 C.ar      1 <0>        -0.1316
     11 C10         1.4116   -6.1268    1.4508 C.ar      1 <0>        -0.0862
     12 C11         1.2221   -6.9351    0.3468 C.ar      1 <0>        -0.0956
     13 C12         0.5797   -6.4331   -0.7774 C.ar      1 <0>         0.1781
     14 C13         0.1252   -5.1203   -0.7857 C.ar      1 <0>        -0.1294
     15 N2          0.3867   -7.2484   -1.8967 N.pl3     1 <0>        -0.6301
     16 C14         0.1374   -8.5972   -1.7339 C.ar      1 <0>         0.6087
     17 N3         -0.0292   -9.0723   -0.5043 N.ar      1 <0>        -0.5711
     18 C15        -0.2702  -10.3548   -0.2963 C.ar      1 <0>         0.2850
     19 C16        -0.3466  -11.2046   -1.4012 C.ar      1 <0>        -0.3289
     20 C17        -0.6113  -12.6438   -1.2611 C.2       1 <0>         0.4540
     21 O1         -0.7761  -13.1571   -0.1681 O.2       1 <0>        -0.4786
     22 C18        -0.6692  -13.4383   -2.5010 C.2       1 <0>        -0.3094
     23 C19        -0.4757  -12.8034   -3.7083 C.2       1 <0>         0.2581
     24 N4         -0.2356  -11.4833   -3.7951 N.pl3     1 <0>        -0.4211
     25 C20        -0.1650  -10.6690   -2.6922 C.ar      1 <0>         0.4678
     26 N5          0.0683   -9.3664   -2.8095 N.ar      1 <0>        -0.5800
     27 C21        -0.0496  -10.9163   -5.0616 C.ar      1 <0>         0.0887
     28 C22        -1.0966  -10.8904   -5.9739 C.ar      1 <0>        -0.0997
     29 C23        -0.9078  -10.3299   -7.2203 C.ar      1 <0>        -0.0936
     30 C24         0.3217   -9.7929   -7.5668 C.ar      1 <0>        -0.0728
     31 C25         1.3661   -9.8174   -6.6607 C.ar      1 <0>        -0.0860
     32 C26         1.1795  -10.3734   -5.4073 C.ar      1 <0>        -0.0669
     33 C27         2.5914   -9.1749   -7.2749 C.3       1 <0>        -0.0825
     34 C28         2.3170   -9.1514   -8.7936 C.3       1 <0>        -0.1219
     35 C29         0.7748   -9.1320   -8.8513 C.3       1 <0>        -0.0878
     36 C30        -0.9290  -14.8858   -2.4503 C.2       1 <0>         0.5961
     37 O2         -1.0697  -15.5149   -3.4818 O.2       1 <0>        -0.5315
     38 N6         -1.0110  -15.5144   -1.2609 N.am      1 <0>        -0.5868
     39 O3         -1.1544  -16.9223   -1.2127 O.3       1 <0>        -0.1463
     40 C31        -1.2286  -17.4540    0.1116 C.3       1 <0>         0.0004
     41 O4         -1.3215   -2.7859   -0.5227 O.3       1 <0>        -0.5484
     42 H1         -2.0189    1.1994    0.7170 H         1 <0>         0.0756
     43 H2         -3.6121    0.5300    0.2905 H         1 <0>         0.1028
     44 H3         -3.0950    0.5812    1.9929 H         1 <0>         0.0748
     45 H4         -2.8792   -1.7084    1.0657 H         1 <0>         0.1266
     46 H5         -1.8031   -1.0902   -0.2103 H         1 <0>         0.1639
     47 H6         -0.2524    0.8540    1.3257 H         1 <0>         0.1329
     48 H7          0.9573   -0.3090    1.9175 H         1 <0>         0.1289
     49 H8         -0.4064   -0.3943   -0.8122 H         1 <0>         0.0949
     50 H9          1.2644    0.1378   -0.5015 H         1 <0>         0.1132
     51 H10         1.1556   -2.2425   -1.2698 H         1 <0>         0.0981
     52 H11         1.8396   -2.0938    0.3683 H         1 <0>         0.0957
     53 H12         0.3661   -2.5398    2.3668 H         1 <0>         0.1435
     54 H13        -1.3025   -3.1081    2.1237 H         1 <0>         0.1397
     55 H14         1.1127   -4.1891    2.3014 H         1 <0>         0.1236
     56 H15         1.9111   -6.5167    2.3254 H         1 <0>         0.1355
     57 H16         1.5734   -7.9563    0.3579 H         1 <0>         0.1411
     58 H17        -0.3783   -4.7280   -1.6569 H         1 <0>         0.1265
     59 H18         0.4278   -6.8669   -2.7876 H         1 <0>         0.4284
     60 H19        -0.4047  -10.7366    0.7050 H         1 <0>         0.1959
     61 H20        -0.5178  -13.3863   -4.6165 H         1 <0>         0.1946
     62 H21        -2.0563  -11.3084   -5.7083 H         1 <0>         0.1348
     63 H22        -1.7221  -10.3098   -7.9295 H         1 <0>         0.1351
     64 H23         1.9937  -10.3884   -4.6980 H         1 <0>         0.1236
     65 H24         2.7158   -8.1599   -6.8974 H         1 <0>         0.0826
     66 H25         3.4787   -9.7705   -7.0601 H         1 <0>         0.0790
     67 H26         2.7331   -8.2526   -9.2486 H         1 <0>         0.0814
     68 H27         2.7114  -10.0477   -9.2724 H         1 <0>         0.0772
     69 H28         0.4215   -9.6983   -9.7131 H         1 <0>         0.0828
     70 H29         0.4110   -8.1056   -8.8973 H         1 <0>         0.0857
     71 H30        -0.9718  -15.0025   -0.4380 H         1 <0>         0.4192
     72 H31        -2.0878  -17.0254    0.6275 H         1 <0>         0.0570
     73 H32        -1.3376  -18.5374    0.0626 H         1 <0>         0.1147
     74 H33        -0.3171  -17.2047    0.6548 H         1 <0>         0.0567
     75 H34        -1.1689   -3.0400   -1.4432 H         1 <0>         0.3947
     76 H35        -1.2717   -0.8072    2.6591 H         1 <0>         0.4237
@<TRIPOS>BOND
     1    1    2 1
     2    1   42 1
     3    1   43 1
     4    1   44 1
     5    2    3 1
     6    2   45 1
     7    2   46 1
     8    3    8 1
     9    3    4 1
    10    3   76 1
    11    4    5 1
    12    4   47 1
    13    4   48 1
    14    5    6 1
    15    5   49 1
    16    5   50 1
    17    6    7 1
    18    6   51 1
    19    6   52 1
    20    7    8 1
    21    7    9 1
    22    7   41 1
    23    8   53 1
    24    8   54 1
    25    9   14 ar
    26    9   10 ar
    27   10   11 ar
    28   10   55 1
    29   11   12 ar
    30   11   56 1
    31   12   13 ar
    32   12   57 1
    33   13   14 ar
    34   13   15 1
    35   14   58 1
    36   15   16 1
    37   15   59 1
    38   16   26 ar
    39   16   17 ar
    40   17   18 ar
    41   18   19 ar
    42   18   60 1
    43   19   25 ar
    44   19   20 1
    45   20   21 2
    46   20   22 1
    47   22   23 2
    48   22   36 1
    49   23   24 1
    50   23   61 1
    51   24   25 1
    52   24   27 1
    53   25   26 ar
    54   27   32 ar
    55   27   28 ar
    56   28   29 ar
    57   28   62 1
    58   29   30 ar
    59   29   63 1
    60   30   35 1
    61   30   31 ar
    62   31   32 ar
    63   31   33 1
    64   32   64 1
    65   33   34 1
    66   33   65 1
    67   33   66 1
    68   34   35 1
    69   34   67 1
    70   34   68 1
    71   35   69 1
    72   35   70 1
    73   36   37 2
    74   36   38 am
    75   38   39 1
    76   38   71 1
    77   39   40 1
    78   40   72 1
    79   40   73 1
    80   40   74 1
    81   41   75 1
@<TRIPOS>MOLECULE
CHEMBL448339__1
   76    81     0     0     0
SMALL
USER_CHARGES

@<TRIPOS>ATOM
      1 C1          4.3610    1.4819    0.5799 C.3       1 <0>        -0.1887
      2 C2          3.4348    0.2641    0.5859 C.3       1 <0>        -0.0122
      3 N1          3.9668   -0.7512    1.5046 N.4       1 <0>        -0.3808
      4 C3          5.2572   -1.2366    1.0009 C.3       1 <0>        -0.0139
      5 C4          5.8543   -2.2349    1.9951 C.3       1 <0>        -0.1417
      6 C5          4.8935   -3.4155    2.1638 C.3       1 <0>        -0.1583
      7 C6          3.5289   -2.8896    2.6182 C.3       1 <0>         0.1699
      8 C7          3.0181   -1.8670    1.6009 C.3       1 <0>         0.0088
      9 C8          2.5543   -4.0351    2.7131 C.ar      1 <0>        -0.1062
     10 C9          1.7975   -4.3912    1.6116 C.ar      1 <0>        -0.1321
     11 C10         0.9018   -5.4413    1.6947 C.ar      1 <0>        -0.0863
     12 C11         0.7601   -6.1382    2.8788 C.ar      1 <0>        -0.0964
     13 C12         1.5189   -5.7834    3.9865 C.ar      1 <0>         0.1781
     14 C13         2.4220   -4.7315    3.8981 C.ar      1 <0>        -0.1300
     15 N2          1.3776   -6.4865    5.1868 N.pl3     1 <0>        -0.6296
     16 C14         1.1010   -7.8397    5.1661 C.ar      1 <0>         0.6084
     17 N3          1.0815   -8.4700    3.9967 N.ar      1 <0>        -0.5711
     18 C15         0.8225   -9.7638    3.9243 C.ar      1 <0>         0.2850
     19 C16         0.5684  -10.4581    5.1084 C.ar      1 <0>        -0.3287
     20 C17         0.2721  -11.8979    5.1198 C.2       1 <0>         0.4535
     21 O1          0.2358  -12.5483    4.0897 O.2       1 <0>        -0.4778
     22 C18         0.0212  -12.5202    6.4319 C.2       1 <0>        -0.3089
     23 C19         0.0761  -11.7348    7.5627 C.2       1 <0>         0.2567
     24 N4          0.3507  -10.4196    7.5109 N.pl3     1 <0>        -0.4198
     25 C20         0.5967   -9.7599    6.3324 C.ar      1 <0>         0.4673
     26 N5          0.8708   -8.4601    6.3130 N.ar      1 <0>        -0.5804
     27 C21         0.3868   -9.6935    8.7073 C.ar      1 <0>         0.0892
     28 C22         1.2879  -10.0400    9.7058 C.ar      1 <0>        -0.1032
     29 C23         1.3195   -9.3206   10.8826 C.ar      1 <0>        -0.0926
     30 C24         0.4559   -8.2538   11.0735 C.ar      1 <0>        -0.0743
     31 C25        -0.4425   -7.9064   10.0813 C.ar      1 <0>        -0.0858
     32 C26        -0.4736   -8.6217    8.8971 C.ar      1 <0>        -0.0655
     33 C27        -1.2664   -6.7184   10.5302 C.3       1 <0>        -0.0821
     34 C28        -1.0803   -6.6531   12.0610 C.3       1 <0>        -0.1219
     35 C29         0.2966   -7.3224   12.2563 C.3       1 <0>        -0.0877
     36 C30        -0.2832  -13.9562    6.5328 C.2       1 <0>         0.5963
     37 O2         -0.5911  -14.4388    7.6061 O.2       1 <0>        -0.5312
     38 N6         -0.2210  -14.7369    5.4359 N.am      1 <0>        -0.5861
     39 O3         -0.6246  -16.0923    5.5077 O.3       1 <0>        -0.1458
     40 C31        -0.5058  -16.8003    4.2722 C.3       1 <0>         0.0003
     41 O4          3.6597   -2.2659    3.8972 O.3       1 <0>        -0.5578
     42 H1          5.3557    1.1803    0.2516 H         1 <0>         0.0805
     43 H2          3.9662    2.2353   -0.1018 H         1 <0>         0.1070
     44 H3          4.4209    1.8978    1.5857 H         1 <0>         0.0809
     45 H4          2.4402    0.5657    0.9142 H         1 <0>         0.1309
     46 H5          3.3749   -0.1517   -0.4199 H         1 <0>         0.1291
     47 H6          5.1099   -1.7269    0.0386 H         1 <0>         0.1287
     48 H7          5.9388   -0.3949    0.8783 H         1 <0>         0.1343
     49 H8          6.8114   -2.5955    1.6184 H         1 <0>         0.1143
     50 H9          6.0022   -1.7456    2.9578 H         1 <0>         0.0936
     51 H10         4.7851   -3.9361    1.2124 H         1 <0>         0.0949
     52 H11         5.2876   -4.1019    2.9133 H         1 <0>         0.0978
     53 H12         2.0465   -1.4907    1.9212 H         1 <0>         0.1398
     54 H13         2.9185   -2.3438    0.6258 H         1 <0>         0.1429
     55 H14         1.9061   -3.8477    0.6847 H         1 <0>         0.1231
     56 H15         0.3121   -5.7166    0.8328 H         1 <0>         0.1355
     57 H16         0.0598   -6.9578    2.9432 H         1 <0>         0.1428
     58 H17         3.0164   -4.4557    4.7566 H         1 <0>         0.1264
     59 H18         1.4738   -6.0240    6.0340 H         1 <0>         0.4287
     60 H19         0.8073  -10.2720    2.9714 H         1 <0>         0.1962
     61 H20        -0.1082  -12.1914    8.5239 H         1 <0>         0.1947
     62 H21         1.9623  -10.8712    9.5614 H         1 <0>         0.1353
     63 H22         2.0203   -9.5902   11.6588 H         1 <0>         0.1354
     64 H23        -1.1721   -8.3475    8.1204 H         1 <0>         0.1237
     65 H24        -0.8969   -5.8045   10.0650 H         1 <0>         0.0824
     66 H25        -2.3169   -6.8716   10.2831 H         1 <0>         0.0787
     67 H26        -1.0608   -5.6190   12.4051 H         1 <0>         0.0813
     68 H27        -1.8613   -7.2175   12.5706 H         1 <0>         0.0771
     69 H28         0.3134   -7.8879   13.1880 H         1 <0>         0.0827
     70 H29         1.0860   -6.5708   12.2549 H         1 <0>         0.0857
     71 H30         0.1003  -14.3703    4.5973 H         1 <0>         0.4188
     72 H31         0.5345  -16.7913    3.9468 H         1 <0>         0.0565
     73 H32        -0.8343  -17.8304    4.4107 H         1 <0>         0.1148
     74 H33        -1.1270  -16.3194    3.5166 H         1 <0>         0.0574
     75 H34         3.9831   -2.8562    4.5915 H         1 <0>         0.4017
     76 H35         4.0969   -0.3419    2.4177 H         1 <0>         0.4302
@<TRIPOS>BOND
     1    1    2 1
     2    1   42 1
     3    1   43 1
     4    1   44 1
     5    2    3 1
     6    2   45 1
     7    2   46 1
     8    3    8 1
     9    3    4 1
    10    3   76 1
    11    4    5 1
    12    4   47 1
    13    4   48 1
    14    5    6 1
    15    5   49 1
    16    5   50 1
    17    6    7 1
    18    6   51 1
    19    6   52 1
    20    7    8 1
    21    7    9 1
    22    7   41 1
    23    8   53 1
    24    8   54 1
    25    9   14 ar
    26    9   10 ar
    27   10   11 ar
    28   10   55 1
    29   11   12 ar
    30   11   56 1
    31   12   13 ar
    32   12   57 1
    33   13   14 ar
    34   13   15 1
    35   14   58 1
    36   15   16 1
    37   15   59 1
    38   16   26 ar
    39   16   17 ar
    40   17   18 ar
    41   18   19 ar
    42   18   60 1
    43   19   25 ar
    44   19   20 1
    45   20   21 2
    46   20   22 1
    47   22   23 2
    48   22   36 1
    49   23   24 1
    50   23   61 1
    51   24   25 1
    52   24   27 1
    53   25   26 ar
    54   27   32 ar
    55   27   28 ar
    56   28   29 ar
    57   28   62 1
    58   29   30 ar
    59   29   63 1
    60   30   35 1
    61   30   31 ar
    62   31   32 ar
    63   31   33 1
    64   32   64 1
    65   33   34 1
    66   33   65 1
    67   33   66 1
    68   34   35 1
    69   34   67 1
    70   34   68 1
    71   35   69 1
    72   35   70 1
    73   36   37 2
    74   36   38 am
    75   38   39 1
    76   38   71 1
    77   39   40 1
    78   40   72 1
    79   40   73 1
    80   40   74 1
    81   41   75 1
@<TRIPOS>MOLECULE
CHEMBL489684
   71    75     0     0     0
SMALL
USER_CHARGES

@<TRIPOS>ATOM
      1 C1          0.4210    0.1216   -1.3536 C.3       1 <0>        -0.1473
      2 C2         -0.2658    0.3056    0.0012 C.3       1 <0>        -0.0920
      3 C3         -1.6037   -0.3878   -0.0156 C.ar      1 <0>        -0.0583
      4 C4         -2.7315    0.2988   -0.4269 C.ar      1 <0>        -0.1062
      5 C5         -3.9591   -0.3336   -0.4430 C.ar      1 <0>        -0.0739
      6 C6         -4.0603   -1.6606   -0.0460 C.ar      1 <0>         0.0834
      7 C7         -2.9257   -2.3474    0.3660 C.ar      1 <0>        -0.1001
      8 C8         -1.7001   -1.7108    0.3749 C.ar      1 <0>        -0.1035
      9 N1         -5.3034   -2.3044   -0.0608 N.pl3     1 <0>        -0.4207
     10 C9         -5.7900   -2.7937    1.0931 C.2       1 <0>         0.2572
     11 C10        -7.0047   -3.4403    1.1642 C.2       1 <0>        -0.3108
     12 C11        -7.7990   -3.6013   -0.0666 C.2       1 <0>         0.4542
     13 O1         -8.8796   -4.1649   -0.0575 O.2       1 <0>        -0.4799
     14 C12        -7.2305   -3.0514   -1.3058 C.ar      1 <0>        -0.3309
     15 C13        -5.9785   -2.4057   -1.2518 C.ar      1 <0>         0.4674
     16 N2         -5.4745   -1.9084   -2.3756 N.ar      1 <0>        -0.5815
     17 C14        -6.1404   -2.0160   -3.5154 C.ar      1 <0>         0.6095
     18 N3         -7.3238   -2.6136   -3.5973 N.ar      1 <0>        -0.5704
     19 C15        -7.8939   -3.1456   -2.5300 C.ar      1 <0>         0.2841
     20 N4         -5.5831   -1.4860   -4.6628 N.pl3     1 <0>        -0.6286
     21 C16        -6.3083   -1.4892   -5.8581 C.ar      1 <0>         0.1733
     22 C17        -7.6878   -1.3286   -5.8356 C.ar      1 <0>        -0.1048
     23 C18        -8.4012   -1.3323   -7.0182 C.ar      1 <0>        -0.0862
     24 C19        -7.7437   -1.4960   -8.2236 C.ar      1 <0>        -0.1131
     25 C20        -6.3704   -1.6561   -8.2495 C.ar      1 <0>        -0.0926
     26 C21        -5.6503   -1.6472   -7.0711 C.ar      1 <0>        -0.1407
     27 C22        -8.5256   -1.5005   -9.5119 C.3       1 <0>        -0.0512
     28 C23        -8.3143   -2.8340  -10.2346 C.3       1 <0>        -0.1410
     29 C24        -9.0460   -2.8014  -11.5781 C.3       1 <0>        -0.0072
     30 N5         -8.5164   -1.7077  -12.4014 N.4       1 <0>        -0.3852
     31 C25        -8.7796   -0.4199  -11.7480 C.3       1 <0>        -0.0072
     32 C26        -8.0376   -0.3609  -10.4111 C.3       1 <0>        -0.1409
     33 C27        -9.1668   -1.7289  -13.7184 C.3       1 <0>        -0.0475
     34 C28        -7.5003   -3.9619    2.4477 C.2       1 <0>         0.5965
     35 O2         -6.8883   -3.7339    3.4739 O.2       1 <0>        -0.5318
     36 N6         -8.6323   -4.6922    2.4864 N.am      1 <0>        -0.5863
     37 O3         -9.1721   -5.0962    3.7316 O.3       1 <0>        -0.1461
     38 C29       -10.3725   -5.8639    3.6231 C.3       1 <0>         0.0005
     39 H1          1.3887    0.6231   -1.3414 H         1 <0>         0.0626
     40 H2          0.5651   -0.9415   -1.5465 H         1 <0>         0.0565
     41 H3         -0.2015    0.5521   -2.1379 H         1 <0>         0.0553
     42 H4          0.3567   -0.1249    0.7856 H         1 <0>         0.0785
     43 H5         -0.4099    1.3687    0.1941 H         1 <0>         0.0775
     44 H6         -2.6521    1.3307   -0.7355 H         1 <0>         0.1331
     45 H7         -4.8396    0.2033   -0.7637 H         1 <0>         0.1257
     46 H8         -3.0011   -3.3793    0.6757 H         1 <0>         0.1331
     47 H9         -0.8167   -2.2457    0.6911 H         1 <0>         0.1360
     48 H10        -5.2085   -2.6762    1.9956 H         1 <0>         0.1942
     49 H11        -8.8557   -3.6317   -2.6016 H         1 <0>         0.1949
     50 H12        -4.6885   -1.1117   -4.6393 H         1 <0>         0.4289
     51 H13        -8.2020   -1.2014   -4.8945 H         1 <0>         0.1399
     52 H14        -9.4739   -1.2075   -7.0014 H         1 <0>         0.1278
     53 H15        -5.8599   -1.7838   -9.1927 H         1 <0>         0.1223
     54 H16        -4.5772   -1.7675   -7.0924 H         1 <0>         0.1292
     55 H17        -9.5854   -1.3658   -9.2956 H         1 <0>         0.0958
     56 H18        -7.2491   -2.9913  -10.4040 H         1 <0>         0.0896
     57 H19        -8.7102   -3.6456   -9.6241 H         1 <0>         0.1147
     58 H20        -8.8977   -3.7494  -12.0952 H         1 <0>         0.1313
     59 H21       -10.1110   -2.6442  -11.4075 H         1 <0>         0.1292
     60 H22        -8.4347    0.3902  -12.3905 H         1 <0>         0.1312
     61 H23        -9.8503   -0.3135  -11.5738 H         1 <0>         0.1291
     62 H24        -8.2358    0.5953   -9.9267 H         1 <0>         0.1141
     63 H25        -6.9667   -0.4669  -10.5841 H         1 <0>         0.0896
     64 H26       -10.2424   -1.6031  -13.5945 H         1 <0>         0.1216
     65 H27        -8.7742   -0.9170  -14.3306 H         1 <0>         0.1236
     66 H28        -8.9664   -2.6823  -14.2073 H         1 <0>         0.1237
     67 H29        -9.0773   -4.9411    1.6612 H         1 <0>         0.4187
     68 H30       -11.1368   -5.2736    3.1176 H         1 <0>         0.0571
     69 H31       -10.1742   -6.7693    3.0495 H         1 <0>         0.0563
     70 H32       -10.7222   -6.1342    4.6195 H         1 <0>         0.1145
     71 H33        -7.5213   -1.8273  -12.5180 H         1 <0>         0.4240
@<TRIPOS>BOND
     1    1    2 1
     2    1   39 1
     3    1   40 1
     4    1   41 1
     5    2    3 1
     6    2   42 1
     7    2   43 1
     8    3    8 ar
     9    3    4 ar
    10    4    5 ar
    11    4   44 1
    12    5    6 ar
    13    5   45 1
    14    6    7 ar
    15    6    9 1
    16    7    8 ar
    17    7   46 1
    18    8   47 1
    19    9   15 1
    20    9   10 1
    21   10   11 2
    22   10   48 1
    23   11   12 1
    24   11   34 1
    25   12   13 2
    26   12   14 1
    27   14   19 ar
    28   14   15 ar
    29   15   16 ar
    30   16   17 ar
    31   17   18 ar
    32   17   20 1
    33   18   19 ar
    34   19   49 1
    35   20   21 1
    36   20   50 1
    37   21   26 ar
    38   21   22 ar
    39   22   23 ar
    40   22   51 1
    41   23   24 ar
    42   23   52 1
    43   24   25 ar
    44   24   27 1
    45   25   26 ar
    46   25   53 1
    47   26   54 1
    48   27   32 1
    49   27   28 1
    50   27   55 1
    51   28   29 1
    52   28   56 1
    53   28   57 1
    54   29   30 1
    55   29   58 1
    56   29   59 1
    57   30   31 1
    58   30   33 1
    59   30   71 1
    60   31   32 1
    61   31   60 1
    62   31   61 1
    63   32   62 1
    64   32   63 1
    65   33   64 1
    66   33   65 1
    67   33   66 1
    68   34   35 2
    69   34   36 am
    70   36   37 1
    71   36   67 1
    72   37   38 1
    73   38   68 1
    74   38   69 1
    75   38   70 1
@<TRIPOS>MOLECULE
CHEMBL255955
   45    48     0     0     0
SMALL
USER_CHARGES

@<TRIPOS>ATOM
      1 C1          2.3022    1.1346    1.7119 C.ar      1 <0>        -0.0970
      2 C2          1.7172    1.2109    2.9628 C.ar      1 <0>        -0.0876
      3 C3          1.0140    0.1326    3.4673 C.ar      1 <0>        -0.1612
      4 C4          0.8933   -1.0245    2.7227 C.ar      1 <0>        -0.0721
      5 C5          1.4790   -1.1041    1.4663 C.ar      1 <0>         0.1622
      6 C6          2.1851   -0.0194    0.9625 C.ar      1 <0>        -0.1132
      7 N1          1.3589   -2.2751    0.7096 N.am      1 <0>        -0.6796
      8 C7          0.2418   -3.0238    0.7993 C.2       1 <0>         0.7035
      9 O1         -0.6990   -2.6348    1.4639 O.2       1 <0>        -0.5468
     10 N2          0.1676   -4.2037    0.1522 N.am      1 <0>        -0.6790
     11 C8         -1.0270   -4.9286    0.1557 C.ar      1 <0>         0.1729
     12 C9         -2.2451   -4.2586    0.1643 C.ar      1 <0>        -0.1138
     13 C10        -3.4247   -4.9710    0.1682 C.ar      1 <0>        -0.0710
     14 C11        -3.3958   -6.3660    0.1632 C.ar      1 <0>        -0.0741
     15 C12        -2.1717   -7.0359    0.1542 C.ar      1 <0>        -0.0930
     16 C13        -0.9952   -6.3185    0.1450 C.ar      1 <0>        -0.1419
     17 C14        -4.6617   -7.1342    0.1680 C.ar      1 <0>         0.0850
     18 C15        -5.6723   -6.8509    1.0857 C.ar      1 <0>        -0.2147
     19 C16        -6.8410   -7.5917    1.0571 C.ar      1 <0>         0.1804
     20 N3         -7.0254   -8.5599    0.1848 N.ar      1 <0>        -0.5118
     21 C17        -6.1025   -8.8795   -0.7153 C.ar      1 <0>         0.3411
     22 C18        -4.8868   -8.1714   -0.7586 C.ar      1 <0>        -0.2347
     23 C19        -4.1054   -8.7532   -1.8468 C.2       1 <0>         0.3732
     24 N4         -4.8222   -9.7081   -2.3793 N.2       1 <0>        -0.3069
     25 N5         -6.0444   -9.8187   -1.7090 N.pl3     1 <0>        -0.4900
     26 H1         -6.7452  -10.4548   -1.9214 H         1 <0>         0.4458
     27 N6         -2.8253   -8.3602   -2.2465 N.pl3     1 <0>        -0.8344
     28 C20         0.3791    0.2197    4.8312 C.3       1 <0>         0.5089
     29 F1          0.6365    1.4780    5.3860 F         1 <0>        -0.1759
     30 F2         -1.0028    0.0352    4.7149 F         1 <0>        -0.1721
     31 F3          0.9141   -0.7732    5.6590 F         1 <0>        -0.1759
     32 H2          2.8473    1.9800    1.3189 H         1 <0>         0.1421
     33 H3          1.8102    2.1145    3.5470 H         1 <0>         0.1418
     34 H4          0.3442   -1.8666    3.1175 H         1 <0>         0.1480
     35 H5          2.6418   -0.0782   -0.0144 H         1 <0>         0.1372
     36 H6          2.0797   -2.5480    0.1206 H         1 <0>         0.4132
     37 H7          0.9435   -4.5497   -0.3160 H         1 <0>         0.4115
     38 H8         -2.2669   -3.1789    0.1681 H         1 <0>         0.1428
     39 H9         -4.3707   -4.4500    0.1756 H         1 <0>         0.1343
     40 H10        -2.1465   -8.1156    0.1503 H         1 <0>         0.1352
     41 H11        -0.0476   -6.8364    0.1336 H         1 <0>         0.1343
     42 H12        -5.5443   -6.0617    1.8118 H         1 <0>         0.1450
     43 H13        -7.6220   -7.3698    1.7694 H         1 <0>         0.1694
     44 H14        -2.3742   -7.6358   -1.7853 H         1 <0>         0.4119
     45 H15        -2.3878   -8.8118   -2.9852 H         1 <0>         0.4068
@<TRIPOS>BOND
     1    1    6 ar
     2    1    2 ar
     3    1   32 1
     4    2    3 ar
     5    2   33 1
     6    3    4 ar
     7    3   28 1
     8    4    5 ar
     9    4   34 1
    10    5    6 ar
    11    5    7 1
    12    6   35 1
    13    7    8 am
    14    7   36 1
    15    8    9 2
    16    8   10 am
    17   10   11 1
    18   10   37 1
    19   11   16 ar
    20   11   12 ar
    21   12   13 ar
    22   12   38 1
    23   13   14 ar
    24   13   39 1
    25   14   15 ar
    26   14   17 1
    27   15   16 ar
    28   15   40 1
    29   16   41 1
    30   17   22 ar
    31   17   18 ar
    32   18   19 ar
    33   18   42 1
    34   19   20 ar
    35   19   43 1
    36   20   21 ar
    37   21   25 1
    38   21   22 ar
    39   22   23 1
    40   23   24 2
    41   23   27 1
    42   24   25 1
    43   25   26 1
    44   27   44 1
    45   27   45 1
    46   28   29 1
    47   28   30 1
    48   28   31 1
@<TRIPOS>MOLECULE
CHEMBL255955__1
   45    48     0     0     0
SMALL
USER_CHARGES

@<TRIPOS>ATOM
      1 C1          2.4582    1.0225    1.1194 C.ar      1 <0>        -0.0969
      2 C2          1.8190    1.2373    2.3269 C.ar      1 <0>        -0.0873
      3 C3          1.0733    0.2279    2.9069 C.ar      1 <0>        -0.1615
      4 C4          0.9644   -0.9990    2.2815 C.ar      1 <0>        -0.0718
      5 C5          1.6049   -1.2178    1.0692 C.ar      1 <0>         0.1620
      6 C6          2.3532   -0.2017    0.4891 C.ar      1 <0>        -0.1127
      7 N1          1.4969   -2.4596    0.4333 N.am      1 <0>        -0.6798
      8 C7          0.3600   -3.1754    0.5411 C.2       1 <0>         0.7032
      9 O1         -0.6040   -2.7030    1.1120 O.2       1 <0>        -0.5476
     10 N2          0.2916   -4.4148    0.0162 N.am      1 <0>        -0.6790
     11 C8         -0.9167   -5.1155    0.0347 C.ar      1 <0>         0.1698
     12 C9         -2.1191   -4.4286   -0.0908 C.ar      1 <0>        -0.1142
     13 C10        -3.3124   -5.1170   -0.0729 C.ar      1 <0>        -0.0720
     14 C11        -3.3135   -6.5054    0.0714 C.ar      1 <0>        -0.0761
     15 C12        -2.1049   -7.1923    0.1971 C.ar      1 <0>        -0.0910
     16 C13        -0.9144   -6.4991    0.1728 C.ar      1 <0>        -0.1434
     17 C14        -4.5936   -7.2476    0.0914 C.ar      1 <0>         0.1033
     18 C15        -5.4987   -7.1456   -0.9569 C.ar      1 <0>        -0.2366
     19 C16        -6.6954   -7.8494   -0.9213 C.ar      1 <0>         0.2048
     20 N3         -7.0294   -8.6291    0.0774 N.ar      1 <0>        -0.4888
     21 C17        -6.2238   -8.7966    1.1395 C.ar      1 <0>         0.3052
     22 C18        -4.9341   -8.0906    1.1781 C.ar      1 <0>        -0.3056
     23 C19        -4.3208   -8.4520    2.3716 C.2       1 <0>         0.4200
     24 N4         -5.1433   -9.3018    3.0095 N.pl3     1 <0>        -0.4531
     25 N5         -6.3039   -9.4994    2.2540 N.2       1 <0>        -0.3046
     26 H1         -4.9622   -9.7118    3.8697 H         1 <0>         0.4436
     27 N6         -3.0860   -8.0154    2.8219 N.pl3     1 <0>        -0.8372
     28 C20         0.3790    0.4661    4.2231 C.3       1 <0>         0.5089
     29 F1          0.6349    1.7716    4.6558 F         1 <0>        -0.1756
     30 F2         -0.9995    0.2901    4.0616 F         1 <0>        -0.1722
     31 F3          0.8569   -0.4424    5.1736 F         1 <0>        -0.1763
     32 H2          3.0363    1.8145    0.6667 H         1 <0>         0.1424
     33 H3          1.9030    2.1955    2.8180 H         1 <0>         0.1419
     34 H4          0.3821   -1.7873    2.7353 H         1 <0>         0.1470
     35 H5          2.8522   -0.3687   -0.4540 H         1 <0>         0.1374
     36 H6          2.2403   -2.8053   -0.0851 H         1 <0>         0.4131
     37 H7          1.0815   -4.8203   -0.3745 H         1 <0>         0.4114
     38 H8         -2.1176   -3.3543   -0.2020 H         1 <0>         0.1419
     39 H9         -4.2460   -4.5828   -0.1700 H         1 <0>         0.1344
     40 H10        -2.1027   -8.2665    0.3088 H         1 <0>         0.1316
     41 H11         0.0213   -7.0305    0.2653 H         1 <0>         0.1320
     42 H12        -5.2710   -6.5155   -1.8039 H         1 <0>         0.1374
     43 H13        -7.3793   -7.7496   -1.7512 H         1 <0>         0.1645
     44 H14        -2.6199   -7.3079    2.3495 H         1 <0>         0.4215
     45 H15        -2.6872   -8.4171    3.6096 H         1 <0>         0.4058
@<TRIPOS>BOND
     1    1    6 ar
     2    1    2 ar
     3    1   32 1
     4    2    3 ar
     5    2   33 1
     6    3    4 ar
     7    3   28 1
     8    4    5 ar
     9    4   34 1
    10    5    6 ar
    11    5    7 1
    12    6   35 1
    13    7    8 am
    14    7   36 1
    15    8    9 2
    16    8   10 am
    17   10   11 1
    18   10   37 1
    19   11   16 ar
    20   11   12 ar
    21   12   13 ar
    22   12   38 1
    23   13   14 ar
    24   13   39 1
    25   14   15 ar
    26   14   17 1
    27   15   16 ar
    28   15   40 1
    29   16   41 1
    30   17   22 ar
    31   17   18 ar
    32   18   19 ar
    33   18   42 1
    34   19   20 ar
    35   19   43 1
    36   20   21 ar
    37   21   22 ar
    38   21   25 2
    39   22   23 2
    40   23   27 1
    41   23   24 1
    42   24   26 1
    43   24   25 1
    44   27   44 1
    45   27   45 1
    46   28   29 1
    47   28   30 1
    48   28   31 1
@<TRIPOS>MOLECULE
CHEMBL249169
   42    45     0     0     0
SMALL
USER_CHARGES

@<TRIPOS>ATOM
      1 C1          4.7605    1.7128   -3.2747 C.ar      1 <0>        -0.1692
      2 C2          4.4941    2.3004   -2.0514 C.ar      1 <0>        -0.0750
      3 C3          4.1159    1.5201   -0.9766 C.ar      1 <0>        -0.1787
      4 C4          4.0032    0.1435   -1.1252 C.ar      1 <0>         0.2272
      5 C5          4.2715   -0.4435   -2.3554 C.ar      1 <0>        -0.1834
      6 C6          4.6492    0.3428   -3.4261 C.ar      1 <0>        -0.0755
      7 N1          3.6212   -0.6491   -0.0396 N.pl3     1 <0>        -0.6927
      8 C7          3.6379   -2.0228   -0.1497 C.ar      1 <0>         0.2883
      9 C8          4.8053   -2.7663    0.1488 C.ar      1 <0>        -0.1129
     10 C9          5.9818   -2.1267    0.5660 C.ar      1 <0>        -0.0710
     11 C10         7.0916   -2.8613    0.8478 C.ar      1 <0>        -0.1046
     12 C11         7.0740   -4.2585    0.7255 C.ar      1 <0>        -0.0172
     13 C12         5.9272   -4.9151    0.3156 C.ar      1 <0>        -0.0820
     14 C13         4.7726   -4.1755    0.0209 C.ar      1 <0>         0.1527
     15 N2          3.6497   -4.7923   -0.3768 N.ar      1 <0>        -0.4700
     16 C14         2.5572   -4.1304   -0.6584 C.ar      1 <0>         0.1688
     17 C15         2.4969   -2.7312   -0.5554 C.ar      1 <0>        -0.2099
     18 C16         1.2508   -2.0150   -0.8737 C.2       1 <0>         0.5665
     19 O1          1.2310   -0.7988   -0.8726 O.2       1 <0>        -0.5151
     20 N3          0.1318   -2.7068   -1.1664 N.am      1 <0>        -0.8505
     21 C17         8.2961   -5.0391    1.0381 C.ar      1 <0>        -0.0082
     22 C18         8.3084   -6.4318    0.9194 C.ar      1 <0>        -0.1610
     23 C19         9.4665   -7.1191    1.2202 C.ar      1 <0>         0.1048
     24 N4         10.5504   -6.4792    1.6152 N.ar      1 <0>        -0.4828
     25 C20        10.5809   -5.1664    1.7403 C.ar      1 <0>         0.1041
     26 C21         9.4685   -4.4016    1.4539 C.ar      1 <0>        -0.1607
     27 H1          5.0517    2.3258   -4.1148 H         1 <0>         0.1196
     28 H2          4.5822    3.3706   -1.9365 H         1 <0>         0.1231
     29 H3          3.9083    1.9795   -0.0215 H         1 <0>         0.1217
     30 H4          4.1848   -1.5134   -2.4744 H         1 <0>         0.1099
     31 H5          4.8576   -0.1129   -4.3829 H         1 <0>         0.1200
     32 H6          3.3443   -0.2325    0.7914 H         1 <0>         0.4163
     33 H7          6.0068   -1.0513    0.6633 H         1 <0>         0.1383
     34 H8          7.9950   -2.3639    1.1683 H         1 <0>         0.1371
     35 H9          5.9212   -5.9911    0.2230 H         1 <0>         0.1465
     36 H10         1.6789   -4.6736   -0.9746 H         1 <0>         0.1656
     37 H11         0.1475   -3.6767   -1.1673 H         1 <0>         0.4000
     38 H12        -0.6893   -2.2349   -1.3761 H         1 <0>         0.4087
     39 H13         7.4244   -6.9621    0.5972 H         1 <0>         0.1405
     40 H14         9.4858   -8.1952    1.1315 H         1 <0>         0.1606
     41 H15        11.4898   -4.6833    2.0672 H         1 <0>         0.1603
     42 H16         9.5019   -3.3267    1.5540 H         1 <0>         0.1396
@<TRIPOS>BOND
     1    1    6 ar
     2    1    2 ar
     3    1   27 1
     4    2    3 ar
     5    2   28 1
     6    3    4 ar
     7    3   29 1
     8    4    5 ar
     9    4    7 1
    10    5    6 ar
    11    5   30 1
    12    6   31 1
    13    7    8 1
    14    7   32 1
    15    8   17 ar
    16    8    9 ar
    17    9   14 ar
    18    9   10 ar
    19   10   11 ar
    20   10   33 1
    21   11   12 ar
    22   11   34 1
    23   12   13 ar
    24   12   21 1
    25   13   14 ar
    26   13   35 1
    27   14   15 ar
    28   15   16 ar
    29   16   17 ar
    30   16   36 1
    31   17   18 1
    32   18   19 2
    33   18   20 am
    34   20   37 1
    35   20   38 1
    36   21   26 ar
    37   21   22 ar
    38   22   23 ar
    39   22   39 1
    40   23   24 ar
    41   23   40 1
    42   24   25 ar
    43   25   26 ar
    44   25   41 1
    45   26   42 1
@<TRIPOS>MOLECULE
CHEMBL249169__1
   43    46     0     0     0
SMALL
USER_CHARGES

@<TRIPOS>ATOM
      1 C1          4.7605    1.7128   -3.2747 C.ar      1 <0>        -0.1485
      2 C2          4.4941    2.3004   -2.0514 C.ar      1 <0>        -0.0705
      3 C3          4.1159    1.5201   -0.9766 C.ar      1 <0>        -0.1598
      4 C4          4.0032    0.1435   -1.1252 C.ar      1 <0>         0.2016
      5 C5          4.2715   -0.4435   -2.3554 C.ar      1 <0>        -0.1841
      6 C6          4.6492    0.3428   -3.4261 C.ar      1 <0>        -0.0746
      7 N1          3.6212   -0.6491   -0.0396 N.pl3     1 <0>        -0.7061
      8 C7          3.6379   -2.0228   -0.1497 C.ar      1 <0>         0.4052
      9 C8          4.8053   -2.7663    0.1488 C.ar      1 <0>        -0.1070
     10 C9          5.9818   -2.1267    0.5660 C.ar      1 <0>        -0.0318
     11 C10         7.0916   -2.8613    0.8478 C.ar      1 <0>        -0.0936
     12 C11         7.0740   -4.2585    0.7255 C.ar      1 <0>         0.0676
     13 C12         5.9272   -4.9151    0.3156 C.ar      1 <0>        -0.1447
     14 C13         4.7726   -4.1755    0.0209 C.ar      1 <0>         0.1619
     15 N2          3.6497   -4.7923   -0.3768 N.ar      1 <0>        -0.4609
     16 C14         2.5572   -4.1304   -0.6584 C.ar      1 <0>         0.2406
     17 C15         2.4969   -2.7312   -0.5554 C.ar      1 <0>        -0.2145
     18 C16         1.2508   -2.0150   -0.8737 C.2       1 <0>         0.5678
     19 O1          1.2310   -0.7988   -0.8726 O.2       1 <0>        -0.4836
     20 N3          0.1318   -2.7068   -1.1664 N.am      1 <0>        -0.8429
     21 C17         8.2961   -5.0391    1.0381 C.ar      1 <0>        -0.0448
     22 C18         8.3084   -6.4318    0.9194 C.ar      1 <0>        -0.1493
     23 C19         9.4665   -7.1191    1.2202 C.ar      1 <0>         0.1102
     24 N4         10.5504   -6.4792    1.6152 N.ar      1 <0>        -0.4635
     25 C20        10.5809   -5.1664    1.7403 C.ar      1 <0>         0.1122
     26 C21         9.4685   -4.4016    1.4539 C.ar      1 <0>        -0.1441
     27 H1          5.0517    2.3258   -4.1148 H         1 <0>         0.1285
     28 H2          4.5822    3.3706   -1.9365 H         1 <0>         0.1326
     29 H3          3.9083    1.9795   -0.0215 H         1 <0>         0.1294
     30 H4          4.1848   -1.5134   -2.4744 H         1 <0>         0.1049
     31 H5          4.8576   -0.1129   -4.3829 H         1 <0>         0.1267
     32 H6          3.3443   -0.2325    0.7914 H         1 <0>         0.4324
     33 H7          6.0068   -1.0513    0.6633 H         1 <0>         0.1656
     34 H8          7.9950   -2.3639    1.1683 H         1 <0>         0.1613
     35 H9          5.9212   -5.9911    0.2230 H         1 <0>         0.1651
     36 H10         1.6789   -4.6736   -0.9746 H         1 <0>         0.2137
     37 H11         0.1475   -3.6767   -1.1673 H         1 <0>         0.3978
     38 H12        -0.6893   -2.2349   -1.3761 H         1 <0>         0.4230
     39 H13         7.4244   -6.9621    0.5972 H         1 <0>         0.1402
     40 H14         9.4858   -8.1952    1.1315 H         1 <0>         0.1677
     41 H15        11.4898   -4.6833    2.0672 H         1 <0>         0.1694
     42 H16         9.5019   -3.3267    1.5540 H         1 <0>         0.1458
     43 H17         3.6479   -5.7589   -0.4585 H         1 <0>         0.4530
@<TRIPOS>BOND
     1    1    6 ar
     2    1    2 ar
     3    1   27 1
     4    2    3 ar
     5    2   28 1
     6    3    4 ar
     7    3   29 1
     8    4    5 ar
     9    4    7 1
    10    5    6 ar
    11    5   30 1
    12    6   31 1
    13    7    8 1
    14    7   32 1
    15    8   17 ar
    16    8    9 ar
    17    9   14 ar
    18    9   10 ar
    19   10   11 ar
    20   10   33 1
    21   11   12 ar
    22   11   34 1
    23   12   13 ar
    24   12   21 1
    25   13   14 ar
    26   13   35 1
    27   14   15 ar
    28   15   16 ar
    29   15   43 1
    30   16   17 ar
    31   16   36 1
    32   17   18 1
    33   18   19 2
    34   18   20 am
    35   20   37 1
    36   20   38 1
    37   21   26 ar
    38   21   22 ar
    39   22   23 ar
    40   22   39 1
    41   23   24 ar
    42   23   40 1
    43   24   25 ar
    44   25   26 ar
    45   25   41 1
    46   26   42 1
@<TRIPOS>MOLECULE
CHEMBL523559
   63    67     0     0     0
SMALL
USER_CHARGES

@<TRIPOS>ATOM
      1 C1         -0.1092    1.5049   -0.0254 C.3       1 <0>        -0.1380
      2 C2         -0.0684   -0.0016   -0.0277 C.ar      1 <0>        -0.0358
      3 C3         -0.0673   -0.6889   -1.2260 C.ar      1 <0>        -0.1247
      4 C4         -0.0301   -2.0686   -1.2370 C.ar      1 <0>        -0.0760
      5 C5          0.0067   -2.7781   -0.0343 C.ar      1 <0>        -0.1410
      6 C6          0.0063   -2.0894    1.1772 C.ar      1 <0>        -0.0348
      7 C7         -0.0260   -0.6981    1.1799 C.ar      1 <0>        -0.0601
      8 C8         -0.0215    0.0424    2.4648 C.ar      1 <0>        -0.0214
      9 C9          1.0945   -0.0171    3.2998 C.ar      1 <0>        -0.0995
     10 C10         1.0999    0.6703    4.4924 C.ar      1 <0>        -0.0854
     11 C11        -0.0128    1.4277    4.8666 C.ar      1 <0>        -0.0190
     12 C12        -1.1295    1.4866    4.0300 C.ar      1 <0>        -0.0654
     13 C13        -1.1307    0.8025    2.8349 C.ar      1 <0>        -0.0683
     14 C14        -2.3331    0.8709    1.9290 C.3       1 <0>        -0.1308
     15 C15        -0.0083    2.1654    6.1466 C.2       1 <0>         0.2068
     16 N1         -0.9822    2.9065    6.6217 N.2       1 <0>        -0.2724
     17 N2         -0.6284    3.3937    7.7588 N.2       1 <0>        -0.2847
     18 C16         0.5751    2.9865    8.0520 C.2       1 <0>         0.1666
     19 O1          0.9945    2.1983    7.0472 O.3       1 <0>        -0.2207
     20 C17         1.3532    3.3327    9.2953 C.3       1 <0>        -0.0603
     21 C18         0.0456   -4.2559   -0.0466 C.2       1 <0>         0.5617
     22 O2          0.0776   -4.8718    1.0009 O.2       1 <0>        -0.5101
     23 N3          0.0455   -4.9202   -1.2193 N.am      1 <0>        -0.6700
     24 C19         0.1769   -6.3124   -1.2342 C.ar      1 <0>         0.1909
     25 C20        -0.3971   -7.0761   -0.2250 C.ar      1 <0>        -0.1743
     26 C21        -0.2682   -8.4514   -0.2391 C.ar      1 <0>        -0.0525
     27 C22         0.4318   -9.0723   -1.2558 C.ar      1 <0>        -0.2100
     28 C23         1.0082   -8.3146   -2.2679 C.ar      1 <0>         0.2368
     29 C24         0.8756   -6.9330   -2.2596 C.ar      1 <0>        -0.2247
     30 N4          1.7161   -8.9430   -3.2950 N.pl3     1 <0>        -0.6326
     31 C25         2.4397   -8.1571   -4.3071 C.3       1 <0>         0.0870
     32 C26         3.8709   -8.6972   -4.4061 C.3       1 <0>         0.0454
     33 O3          3.8272  -10.1113   -4.6122 O.3       1 <0>        -0.3789
     34 C27         3.2251  -10.8406   -3.5401 C.3       1 <0>         0.0449
     35 C28         1.7655  -10.4103   -3.3934 C.3       1 <0>         0.0862
     36 H1          0.9081    1.8959   -0.0448 H         1 <0>         0.0781
     37 H2         -0.6499    1.8551   -0.9046 H         1 <0>         0.0745
     38 H3         -0.6152    1.8533    0.8750 H         1 <0>         0.0842
     39 H4         -0.0961   -0.1444   -2.1582 H         1 <0>         0.1350
     40 H5         -0.0298   -2.6005   -2.1769 H         1 <0>         0.1276
     41 H6          0.0343   -2.6330    2.1100 H         1 <0>         0.1406
     42 H7          1.9544   -0.6030    3.0105 H         1 <0>         0.1362
     43 H8          1.9638    0.6238    5.1388 H         1 <0>         0.1350
     44 H9         -1.9902    2.0718    4.3183 H         1 <0>         0.1437
     45 H10        -3.0260    0.0690    2.1838 H         1 <0>         0.0769
     46 H11        -2.8290    1.8333    2.0555 H         1 <0>         0.0744
     47 H12        -2.0141    0.7599    0.8927 H         1 <0>         0.0819
     48 H13         1.1472    2.5943   10.0702 H         1 <0>         0.1017
     49 H14         2.4193    3.3335    9.0683 H         1 <0>         0.0948
     50 H15         1.0558    4.3208    9.6467 H         1 <0>         0.1094
     51 H16        -0.0457   -4.4327   -2.0529 H         1 <0>         0.4092
     52 H17        -0.9443   -6.5938    0.5715 H         1 <0>         0.1360
     53 H18        -0.7153   -9.0425    0.5464 H         1 <0>         0.1264
     54 H19         0.5314  -10.1477   -1.2636 H         1 <0>         0.1234
     55 H20         1.3192   -6.3420   -3.0473 H         1 <0>         0.1246
     56 H21         1.9427   -8.2551   -5.2722 H         1 <0>         0.0713
     57 H22         2.4627   -7.1086   -4.0102 H         1 <0>         0.0909
     58 H23         4.3819   -8.2229   -5.2440 H         1 <0>         0.1053
     59 H24         4.4067   -8.4804   -3.4820 H         1 <0>         0.0559
     60 H25         3.2715  -11.9082   -3.7549 H         1 <0>         0.1062
     61 H26         3.7585  -10.6315   -2.6128 H         1 <0>         0.0559
     62 H27         1.3422  -10.8532   -2.4918 H         1 <0>         0.0945
     63 H28         1.1994  -10.7391   -4.2650 H         1 <0>         0.0715
@<TRIPOS>BOND
     1    1    2 1
     2    1   36 1
     3    1   37 1
     4    1   38 1
     5    2    7 ar
     6    2    3 ar
     7    3    4 ar
     8    3   39 1
     9    4    5 ar
    10    4   40 1
    11    5    6 ar
    12    5   21 1
    13    6    7 ar
    14    6   41 1
    15    7    8 1
    16    8   13 ar
    17    8    9 ar
    18    9   10 ar
    19    9   42 1
    20   10   11 ar
    21   10   43 1
    22   11   12 ar
    23   11   15 1
    24   12   13 ar
    25   12   44 1
    26   13   14 1
    27   14   45 1
    28   14   46 1
    29   14   47 1
    30   15   19 1
    31   15   16 2
    32   16   17 1
    33   17   18 2
    34   18   19 1
    35   18   20 1
    36   20   48 1
    37   20   49 1
    38   20   50 1
    39   21   22 2
    40   21   23 am
    41   23   24 1
    42   23   51 1
    43   24   29 ar
    44   24   25 ar
    45   25   26 ar
    46   25   52 1
    47   26   27 ar
    48   26   53 1
    49   27   28 ar
    50   27   54 1
    51   28   29 ar
    52   28   30 1
    53   29   55 1
    54   30   35 1
    55   30   31 1
    56   31   32 1
    57   31   56 1
    58   31   57 1
    59   32   33 1
    60   32   58 1
    61   32   59 1
    62   33   34 1
    63   34   35 1
    64   34   60 1
    65   34   61 1
    66   35   62 1
    67   35   63 1
@<TRIPOS>MOLECULE
CHEMBL454616
   59    62     0     0     0
SMALL
USER_CHARGES

@<TRIPOS>ATOM
      1 C1         -0.3939    1.3222    0.2871 C.3       1 <0>        -0.1155
      2 C2         -0.1879   -0.1588    0.0997 C.ar      1 <0>        -0.1245
      3 C3         -0.3271   -0.7217   -1.1546 C.ar      1 <0>        -0.0825
      4 C4         -0.1387   -2.0787   -1.3307 C.ar      1 <0>        -0.1280
      5 C5          0.1918   -2.8824   -0.2462 C.ar      1 <0>         0.1561
      6 C6          0.3324   -2.3204    1.0144 C.ar      1 <0>        -0.1490
      7 C7          0.1475   -0.9558    1.1870 C.ar      1 <0>         0.1605
      8 N1          0.2939   -0.3844    2.4550 N.am      1 <0>        -0.6616
      9 C8          0.0526   -1.1206    3.5578 C.2       1 <0>         0.5630
     10 O1         -0.2154   -2.3019    3.4535 O.2       1 <0>        -0.5149
     11 C9          0.1137   -0.4922    4.8934 C.ar      1 <0>        -0.1417
     12 C10         0.4185    0.8760    5.0090 C.ar      1 <0>        -0.0790
     13 C11         0.4810    1.4763    6.2243 C.ar      1 <0>        -0.0914
     14 C12         0.2397    0.7306    7.3936 C.ar      1 <0>         0.1471
     15 C13        -0.0689   -0.6493    7.2881 C.ar      1 <0>        -0.1168
     16 C14        -0.1351   -1.2529    6.0245 C.ar      1 <0>        -0.0144
     17 C15        -0.3089   -1.3875    8.4634 C.ar      1 <0>        -0.0442
     18 C16        -0.2330   -0.7351    9.6613 C.ar      1 <0>        -0.1768
     19 C17         0.0750    0.6228    9.6941 C.ar      1 <0>         0.1469
     20 N2          0.2975    1.3071    8.5976 N.ar      1 <0>        -0.4785
     21 N3          0.3820   -4.2563   -0.4253 N.am      1 <0>        -0.6655
     22 C18         0.9535   -4.7157   -1.5561 C.2       1 <0>         0.5623
     23 O2          1.2283   -3.9447   -2.4549 O.2       1 <0>        -0.5128
     24 C19         1.2462   -6.1572   -1.7035 C.ar      1 <0>        -0.1070
     25 C20         0.9263   -7.0457   -0.6749 C.ar      1 <0>        -0.1079
     26 C21         1.2005   -8.3907   -0.8148 C.ar      1 <0>        -0.0851
     27 C22         1.7919   -8.8639   -1.9713 C.ar      1 <0>        -0.1309
     28 C23         2.1143   -7.9879   -3.0011 C.ar      1 <0>         0.1657
     29 C24         1.8376   -6.6351   -2.8726 C.ar      1 <0>        -0.0844
     30 N4          2.7127   -8.4710   -4.1675 N.pl3     1 <0>        -0.9428
     31 C25         2.5657   -7.7344   -5.4253 C.3       1 <0>         0.0789
     32 S1          3.5881   -9.8761   -4.1283 S.o2      1 <0>         2.6001
     33 O3          4.5124   -9.7575   -5.2010 O.2       1 <0>        -0.9400
     34 O4          4.0449   -9.9814   -2.7868 O.2       1 <0>        -0.9381
     35 C26         2.3839  -11.1856   -4.4829 C.3       1 <0>        -0.6724
     36 H1          0.5535    1.8419    0.1439 H         1 <0>         0.0722
     37 H2         -1.1200    1.6831   -0.4414 H         1 <0>         0.0740
     38 H3         -0.7643    1.5129    1.2943 H         1 <0>         0.0618
     39 H4         -0.5842   -0.0993   -1.9989 H         1 <0>         0.1316
     40 H5         -0.2486   -2.5157   -2.3122 H         1 <0>         0.1401
     41 H6          0.5891   -2.9428    1.8589 H         1 <0>         0.1544
     42 H7          0.5691    0.5418    2.5408 H         1 <0>         0.4125
     43 H8          0.6056    1.4569    4.1179 H         1 <0>         0.1322
     44 H9          0.7168    2.5279    6.2946 H         1 <0>         0.1444
     45 H10        -0.3736   -2.3024    5.9338 H         1 <0>         0.1478
     46 H11        -0.5468   -2.4401    8.4188 H         1 <0>         0.1448
     47 H12        -0.4118   -1.2714   10.5815 H         1 <0>         0.1435
     48 H13         0.1317    1.1258   10.6481 H         1 <0>         0.1645
     49 H14         0.1026   -4.8785    0.2643 H         1 <0>         0.4125
     50 H15         0.4645   -6.6800    0.2303 H         1 <0>         0.1307
     51 H16         0.9525   -9.0761   -0.0178 H         1 <0>         0.1402
     52 H17         2.0044   -9.9177   -2.0748 H         1 <0>         0.1315
     53 H18         2.0835   -5.9533   -3.6733 H         1 <0>         0.1452
     54 H19         3.3796   -7.0159   -5.5229 H         1 <0>         0.0736
     55 H20         2.5957   -8.4332   -6.2612 H         1 <0>         0.0839
     56 H21         1.6123   -7.2060   -5.4276 H         1 <0>         0.0845
     57 H22         1.9395  -11.0147   -5.4634 H         1 <0>         0.1322
     58 H23         2.8863  -12.1529   -4.4753 H         1 <0>         0.1360
     59 H24         1.6025  -11.1761   -3.7231 H         1 <0>         0.1313
@<TRIPOS>BOND
     1    1    2 1
     2    1   36 1
     3    1   37 1
     4    1   38 1
     5    2    7 ar
     6    2    3 ar
     7    3    4 ar
     8    3   39 1
     9    4    5 ar
    10    4   40 1
    11    5    6 ar
    12    5   21 1
    13    6    7 ar
    14    6   41 1
    15    7    8 1
    16    8    9 am
    17    8   42 1
    18    9   10 2
    19    9   11 1
    20   11   16 ar
    21   11   12 ar
    22   12   13 ar
    23   12   43 1
    24   13   14 ar
    25   13   44 1
    26   14   20 ar
    27   14   15 ar
    28   15   16 ar
    29   15   17 ar
    30   16   45 1
    31   17   18 ar
    32   17   46 1
    33   18   19 ar
    34   18   47 1
    35   19   20 ar
    36   19   48 1
    37   21   22 am
    38   21   49 1
    39   22   23 2
    40   22   24 1
    41   24   29 ar
    42   24   25 ar
    43   25   26 ar
    44   25   50 1
    45   26   27 ar
    46   26   51 1
    47   27   28 ar
    48   27   52 1
    49   28   29 ar
    50   28   30 1
    51   29   53 1
    52   30   31 1
    53   30   32 1
    54   31   54 1
    55   31   55 1
    56   31   56 1
    57   32   33 2
    58   32   34 2
    59   32   35 1
    60   35   57 1
    61   35   58 1
    62   35   59 1
@<TRIPOS>MOLECULE
CHEMBL507803
   45    47     0     0     0
SMALL
USER_CHARGES

@<TRIPOS>ATOM
      1 C1         -0.3899    1.3171    0.2782 C.3       1 <0>        -0.1164
      2 C2         -0.1853   -0.1645    0.0937 C.ar      1 <0>        -0.1218
      3 C3         -0.3253   -0.7298   -1.1594 C.ar      1 <0>        -0.0819
      4 C4         -0.1391   -2.0875   -1.3326 C.ar      1 <0>        -0.1265
      5 C5          0.1897   -2.8895   -0.2464 C.ar      1 <0>         0.1542
      6 C6          0.3314   -2.3249    1.0130 C.ar      1 <0>        -0.1479
      7 C7          0.1493   -0.9596    1.1826 C.ar      1 <0>         0.1595
      8 N1          0.2968   -0.3857    2.4494 N.am      1 <0>        -0.6612
      9 C8          0.0543   -1.1191    3.5538 C.2       1 <0>         0.5675
     10 O1         -0.2160   -2.2999    3.4521 O.2       1 <0>        -0.5128
     11 C9          0.1168   -0.4876    4.8887 C.ar      1 <0>        -0.1936
     12 C10        -0.1275   -1.2397    6.0444 C.ar      1 <0>        -0.0119
     13 C11        -0.0566   -0.6010    7.2696 C.ar      1 <0>        -0.1767
     14 C12         0.2504    0.7473    7.3136 C.ar      1 <0>         0.1282
     15 N2          0.4754    1.4311    6.2080 N.ar      1 <0>        -0.4846
     16 C13         0.4258    0.8669    5.0191 C.ar      1 <0>         0.1370
     17 N3          0.3771   -4.2641   -0.4224 N.am      1 <0>        -0.6651
     18 C14         0.9477   -4.7272   -1.5522 C.2       1 <0>         0.5624
     19 O2          1.2241   -3.9587   -2.4527 O.2       1 <0>        -0.5084
     20 C15         1.2375   -6.1694   -1.6964 C.ar      1 <0>        -0.1371
     21 C16         0.9161   -7.0555   -0.6665 C.ar      1 <0>        -0.0542
     22 C17         1.1887   -8.4002   -0.8077 C.ar      1 <0>        -0.1230
     23 C18         1.7795   -8.8716   -1.9669 C.ar      1 <0>        -0.0434
     24 C19         2.1005   -7.9990   -2.9912 C.ar      1 <0>        -0.1893
     25 C20         1.8284   -6.6522   -2.8650 C.ar      1 <0>        -0.0070
     26 C21         2.7442   -8.5213   -4.2498 C.3       1 <0>         0.5104
     27 F1          2.9144   -9.9061   -4.1464 F         1 <0>        -0.1747
     28 F2          1.9252   -8.2327   -5.3467 F         1 <0>        -0.1728
     29 F3          3.9903   -7.9100   -4.4246 F         1 <0>        -0.1727
     30 H1          0.5581    1.8355    0.1338 H         1 <0>         0.0734
     31 H2         -1.1156    1.6773   -0.4510 H         1 <0>         0.0750
     32 H3         -0.7600    1.5103    1.2850 H         1 <0>         0.0620
     33 H4         -0.5812   -0.1088   -2.0051 H         1 <0>         0.1330
     34 H5         -0.2496   -2.5263   -2.3132 H         1 <0>         0.1407
     35 H6          0.5870   -2.9460    1.8588 H         1 <0>         0.1542
     36 H7          0.5738    0.5401    2.5331 H         1 <0>         0.4124
     37 H8         -0.3655   -2.2913    5.9809 H         1 <0>         0.1501
     38 H9         -0.2394   -1.1491    8.1821 H         1 <0>         0.1474
     39 H10         0.3064    1.2484    8.2687 H         1 <0>         0.1657
     40 H11         0.6214    1.4587    4.1371 H         1 <0>         0.1573
     41 H12         0.0964   -4.8843    0.2686 H         1 <0>         0.4118
     42 H13         0.4553   -6.6888    0.2388 H         1 <0>         0.1376
     43 H14         0.9409   -9.0867   -0.0116 H         1 <0>         0.1462
     44 H15         1.9912   -9.9254   -2.0722 H         1 <0>         0.1471
     45 H16         2.0754   -5.9727   -3.6673 H         1 <0>         0.1501
@<TRIPOS>BOND
     1    1    2 1
     2    1   30 1
     3    1   31 1
     4    1   32 1
     5    2    7 ar
     6    2    3 ar
     7    3    4 ar
     8    3   33 1
     9    4    5 ar
    10    4   34 1
    11    5    6 ar
    12    5   17 1
    13    6    7 ar
    14    6   35 1
    15    7    8 1
    16    8    9 am
    17    8   36 1
    18    9   10 2
    19    9   11 1
    20   11   16 ar
    21   11   12 ar
    22   12   13 ar
    23   12   37 1
    24   13   14 ar
    25   13   38 1
    26   14   15 ar
    27   14   39 1
    28   15   16 ar
    29   16   40 1
    30   17   18 am
    31   17   41 1
    32   18   19 2
    33   18   20 1
    34   20   25 ar
    35   20   21 ar
    36   21   22 ar
    37   21   42 1
    38   22   23 ar
    39   22   43 1
    40   23   24 ar
    41   23   44 1
    42   24   25 ar
    43   24   26 1
    44   25   45 1
    45   26   27 1
    46   26   28 1
    47   26   29 1
@<TRIPOS>MOLECULE
CHEMBL251603
   43    45     0     0     0
SMALL
USER_CHARGES

@<TRIPOS>ATOM
      1 C1         -0.0190    1.4477   -0.0082 C.3       1 <0>        -0.0500
      2 N1          0.0052   -0.0211   -0.0063 N.4       1 <0>        -0.3806
      3 C2         -1.3716   -0.5315   -0.0069 C.3       1 <0>        -0.0266
      4 C3         -1.3489   -2.0593   -0.1206 C.3       1 <0>         0.1193
      5 N2         -0.5034   -2.5946    0.9577 N.pl3     1 <0>        -0.6764
      6 C4          0.8400   -2.0217    1.1345 C.3       1 <0>         0.1132
      7 C5          0.7139   -0.4957    1.1890 C.3       1 <0>        -0.0268
      8 C6         -0.9640   -3.6192    1.7917 C.ar      1 <0>         0.1278
      9 C7         -0.7404   -4.9455    1.4527 C.ar      1 <0>        -0.0966
     10 C8         -1.1960   -5.9561    2.2785 C.ar      1 <0>        -0.1135
     11 C9         -1.8755   -5.6494    3.4432 C.ar      1 <0>        -0.0876
     12 C10        -2.1028   -4.3305    3.7889 C.ar      1 <0>        -0.1108
     13 C11        -1.6443   -3.3099    2.9694 C.ar      1 <0>         0.1298
     14 N3         -1.8685   -1.9726    3.3206 N.am      1 <0>        -0.6551
     15 C12        -3.0070   -1.6233    3.9516 C.2       1 <0>         0.6013
     16 O1         -3.8031   -2.4799    4.2892 O.2       1 <0>        -0.4630
     17 C13        -3.2866   -0.2114    4.2315 C.2       1 <0>        -0.0145
     18 C14        -4.3932    0.2772    4.8651 C.2       1 <0>        -0.1077
     19 C15        -4.2455    1.6721    4.9173 C.2       1 <0>        -0.0783
     20 C16        -3.0701    1.9701    4.3208 C.2       1 <0>         0.0301
     21 O2         -2.4929    0.8321    3.9134 O.3       1 <0>        -0.1523
     22 N4         -2.5101    3.3297    4.1506 N.pl3     1 <0>         0.0655
     23 O3         -3.1179    4.2899    4.5634 O.2       1 <0>        -0.0946
     24 O4         -1.4449    3.4801    3.5989 O.3       1 <0>        -0.1315
     25 H1          1.0026    1.8279   -0.0158 H         1 <0>         0.1285
     26 H2         -0.5449    1.8013   -0.8950 H         1 <0>         0.1254
     27 H3         -0.5325    1.8038    0.8849 H         1 <0>         0.1221
     28 H4         -1.8665   -0.2434    0.9206 H         1 <0>         0.1205
     29 H5         -1.9143   -0.1121   -0.8541 H         1 <0>         0.1405
     30 H6         -2.3617   -2.4493   -0.0197 H         1 <0>         0.1156
     31 H7         -0.9365   -2.3486   -1.0872 H         1 <0>         0.0849
     32 H8          1.2743   -2.3868    2.0653 H         1 <0>         0.1177
     33 H9          1.4734   -2.3072    0.2946 H         1 <0>         0.0865
     34 H10         1.7080   -0.0498    1.2230 H         1 <0>         0.1444
     35 H11         0.1559   -0.2086    2.0803 H         1 <0>         0.1202
     36 H12        -0.2107   -5.1886    0.5435 H         1 <0>         0.1326
     37 H13        -1.0211   -6.9882    2.0131 H         1 <0>         0.1348
     38 H14        -2.2300   -6.4429    4.0845 H         1 <0>         0.1370
     39 H15        -2.6339   -4.0947    4.6993 H         1 <0>         0.1452
     40 H16        -1.2042   -1.2979    3.1097 H         1 <0>         0.4057
     41 H17        -5.2218   -0.2981    5.2510 H         1 <0>         0.1943
     42 H18        -4.9406    2.3751    5.3520 H         1 <0>         0.1961
     43 H19         0.4834   -0.3495   -0.8319 H         1 <0>         0.4266
@<TRIPOS>BOND
     1    1    2 1
     2    1   25 1
     3    1   26 1
     4    1   27 1
     5    2    7 1
     6    2    3 1
     7    2   43 1
     8    3    4 1
     9    3   28 1
    10    3   29 1
    11    4    5 1
    12    4   30 1
    13    4   31 1
    14    5    6 1
    15    5    8 1
    16    6    7 1
    17    6   32 1
    18    6   33 1
    19    7   34 1
    20    7   35 1
    21    8   13 ar
    22    8    9 ar
    23    9   10 ar
    24    9   36 1
    25   10   11 ar
    26   10   37 1
    27   11   12 ar
    28   11   38 1
    29   12   13 ar
    30   12   39 1
    31   13   14 1
    32   14   15 am
    33   14   40 1
    34   15   16 2
    35   15   17 1
    36   17   21 1
    37   17   18 2
    38   18   19 1
    39   18   41 1
    40   19   20 2
    41   19   42 1
    42   20   21 1
    43   20   22 1
    44   22   23 2
    45   22   24 1
