@<TRIPOS>MOLECULE
3KRJ-KRJ
 54 57 0 0 0
SMALL
SF_CHARGES


@<TRIPOS>ATOM
1    N         7.7680   24.7790    4.4760  N.1        1 SUBUNIT     -0.4530
2    C         8.1750   25.1810    5.4830  C.1        1 SUBUNIT      0.3281
3    C         8.6640   25.6850    6.7230  C.2        1 SUBUNIT      0.3041
4    C         9.6850   25.1970    7.5110  C.2        1 SUBUNIT     -0.0190
5    N         9.7520   26.0480    8.6010  N.pl3      1 SUBUNIT     -0.3225
6    C         8.8160   26.9840    8.4530  C.2        1 SUBUNIT      0.3469
7    N         8.1150   26.8190    7.3340  N.2        1 SUBUNIT     -0.5188
8    C         8.6330   28.0060    9.5170  C.2        1 SUBUNIT      0.6444
9    O         9.2090   27.8790   10.6010  O.2        1 SUBUNIT     -0.5392
10   N         7.8330   29.0140    9.1550  N.am       1 SUBUNIT     -0.5269
11   C         7.3740   30.0960    9.9440  C.2        1 SUBUNIT      0.1182
12   C         7.5780   30.0390   11.3340  C.2        1 SUBUNIT     -0.1063
13   C         7.1030   31.0480   12.1630  C.2        1 SUBUNIT     -0.0977
14   C         6.4090   32.1570   11.6490  C.2        1 SUBUNIT     -0.0337
15   C         6.1930   32.2330   10.2430  C.2        1 SUBUNIT     -0.1043
16   C         6.6610   31.1950    9.3810  C.2        1 SUBUNIT     -0.0233
17   C         6.4460   31.2990    7.9140  C.2        1 SUBUNIT     -0.0184
18   C         5.7060   30.3750    7.2560  C.2        1 SUBUNIT     -0.1103
19   C         5.5000   30.3350    5.7470  C.3        1 SUBUNIT     -0.0340
20   C         6.6530   31.0070    4.9870  C.3        1 SUBUNIT     -0.0580
21   C         6.9740   32.3660    5.6180  C.3        1 SUBUNIT     -0.0575
22   C         7.3450   32.2360    7.1110  C.3        1 SUBUNIT     -0.0369
23   C         5.9640   33.1700   12.7240  C.3        1 SUBUNIT      0.0147
24   C         4.4620   33.0150   13.1030  C.3        1 SUBUNIT     -0.0721
25   C         3.7380   34.3240   13.4510  C.3        1 SUBUNIT      0.1394
26   N         4.6730   35.1550   14.1950  N.4        1 SUBUNIT     -0.3879
27   C         5.5460   35.7390   13.1880  C.3        1 SUBUNIT      0.1394
28   C         6.4540   34.6400   12.5900  C.3        1 SUBUNIT     -0.0721
29   H        10.2997   24.3353    7.3176  H          1 SUBUNIT      0.1041
30   H        10.2331   25.8795    9.4706  H          1 SUBUNIT      0.3204
31   H         7.5340   28.9730    8.1932  H          1 SUBUNIT      0.3254
32   H         8.1069   29.2076   11.7663  H          1 SUBUNIT      0.1117
33   H         7.2735   30.9731   13.2228  H          1 SUBUNIT      0.1105
34   H         5.6733   33.0792    9.8287  H          1 SUBUNIT      0.1095
35   H         5.2558   29.6414    7.9017  H          1 SUBUNIT      0.0943
36   H         5.4285   29.2892    5.4303  H          1 SUBUNIT      0.0463
37   H         4.5665   30.8544    5.5065  H          1 SUBUNIT      0.0463
38   H         7.5405   30.3673    5.0340  H          1 SUBUNIT      0.0481
39   H         6.3624   31.1528    3.9414  H          1 SUBUNIT      0.0481
40   H         7.8163   32.8135    5.0802  H          1 SUBUNIT      0.0477
41   H         6.0957   33.0133    5.5251  H          1 SUBUNIT      0.0477
42   H         7.2895   33.2302    7.5666  H          1 SUBUNIT      0.0450
43   H         8.3711   31.8598    7.1785  H          1 SUBUNIT      0.0450
44   H         6.5530   32.8585   13.5930  H          1 SUBUNIT      0.0422
45   H         3.9405   32.5584   12.2553  H          1 SUBUNIT      0.0512
46   H         4.3950   32.3532   13.9728  H          1 SUBUNIT      0.0512
47   H         3.4320   34.8487   12.5399  H          1 SUBUNIT      0.0364
48   H         2.8578   34.1241   14.0709  H          1 SUBUNIT      0.0364
49   H         4.1815   35.8768   14.6985  H          1 SUBUNIT      0.3073
50   H         5.2052   34.5956   14.8430  H          1 SUBUNIT      0.3073
51   H         4.9269   36.1858   12.4031  H          1 SUBUNIT      0.0364
52   H         6.1553   36.5168   13.6600  H          1 SUBUNIT      0.0364
53   H         7.4275   34.7119   13.0861  H          1 SUBUNIT      0.0512
54   H         6.5709   34.8550   11.5227  H          1 SUBUNIT      0.0512
@<TRIPOS>BOND
     1    1    2 3
     2    2    3 1
     3    3    4 2
     4    3    7 1
     5    4    5 1
     6    5    6 1
     7    6    7 2
     8    6    8 1
     9    8    9 2
    10    8   10 1
    11   10   11 1
    12   11   12 2
    13   11   16 1
    14   12   13 1
    15   13   14 2
    16   14   15 1
    17   14   23 1
    18   15   16 2
    19   16   17 1
    20   17   18 2
    21   17   22 1
    22   18   19 1
    23   19   20 1
    24   20   21 1
    25   21   22 1
    26   23   24 1
    27   23   28 1
    28   24   25 1
    29   25   26 1
    30   26   27 1
    31   27   28 1
    32    4   29 1
    33    5   30 1
    34   10   31 1
    35   12   32 1
    36   13   33 1
    37   15   34 1
    38   18   35 1
    39   19   36 1
    40   19   37 1
    41   20   38 1
    42   20   39 1
    43   21   40 1
    44   21   41 1
    45   22   42 1
    46   22   43 1
    47   23   44 1
    48   24   45 1
    49   24   46 1
    50   25   47 1
    51   25   48 1
    52   26   49 1
    53   26   50 1
    54   27   51 1
    55   27   52 1
    56   28   53 1
    57   28   54 1
