@<TRIPOS>MOLECULE
CHEMBL596020
   59    63     0     0     0
SMALL
USER_CHARGES

@<TRIPOS>ATOM
      1 C1         -0.4373    1.3619   -2.8665 C.3       1 <0>        -0.1514
      2 C2         -0.3835   -0.1582   -2.7010 C.3       1 <0>        -0.6073
      3 S1          0.8176   -0.5837   -1.4099 S.o2      1 <0>         2.4942
      4 O1          2.1339   -0.2689   -1.8430 O.2       1 <0>        -0.9315
      5 O2          0.3483   -0.1469   -0.1417 O.2       1 <0>        -0.9321
      6 C3          0.7823   -2.3431   -1.3207 C.ar      1 <0>        -0.6650
      7 C4         -0.1018   -2.9731   -0.4645 C.ar      1 <0>        -0.0072
      8 C5         -0.1319   -4.3523   -0.3929 C.ar      1 <0>        -0.1605
      9 C6          0.7264   -5.1055   -1.1814 C.ar      1 <0>         0.1419
     10 C7          1.6127   -4.4707   -2.0398 C.ar      1 <0>        -0.1390
     11 C8          1.6349   -3.0914   -2.1113 C.ar      1 <0>        -0.0052
     12 O3          0.6992   -6.4623   -1.1126 O.3       1 <0>        -0.2478
     13 C9         -0.4074   -7.1024   -1.5737 C.ar      1 <0>         0.1613
     14 C10        -1.4041   -6.3829   -2.2094 C.ar      1 <0>        -0.1994
     15 C11        -2.5324   -7.0396   -2.6789 C.ar      1 <0>         0.0974
     16 C12        -2.6564   -8.4307   -2.5063 C.ar      1 <0>         0.0290
     17 C13        -1.6369   -9.1387   -1.8604 C.ar      1 <0>         0.0077
     18 C14        -0.5298   -8.4800   -1.4091 C.ar      1 <0>        -0.1374
     19 C15         0.5675   -9.2496   -0.7201 C.3       1 <0>         0.2135
     20 N1          0.4333   -9.0981    0.7309 N.pl3     1 <0>        -0.9807
     21 C16         0.9515   -7.9953    1.5604 C.3       1 <0>         0.0670
     22 C17         0.0655   -7.7805    2.8017 C.3       1 <0>        -0.1307
     23 C18        -0.1924   -9.2100    3.3666 C.3       1 <0>        -0.5933
     24 S2         -0.3471  -10.1396    1.7873 S.o2      1 <0>         2.5565
     25 O4          0.4491  -11.3161    1.8179 O.2       1 <0>        -0.9553
     26 O5         -1.6998  -10.1766    1.3536 O.2       1 <0>        -0.9489
     27 N2         -3.8402   -8.7976   -3.0537 N.2       1 <0>        -0.4563
     28 C19        -4.4442   -7.7441   -3.5439 C.2       1 <0>         0.3262
     29 N3         -3.6745   -6.6299   -3.3368 N.pl3     1 <0>        -0.5780
     30 C20        -5.7604   -7.7555   -4.2199 C.ar      1 <0>         0.1798
     31 C21        -6.4530   -8.9572   -4.3652 C.ar      1 <0>        -0.1176
     32 C22        -7.6831   -8.9516   -4.9999 C.ar      1 <0>        -0.0729
     33 C23        -8.1811   -7.7442   -5.4688 C.ar      1 <0>        -0.1572
     34 C24        -7.4405   -6.5892   -5.2905 C.ar      1 <0>         0.1061
     35 N4         -6.2751   -6.6208   -4.6785 N.ar      1 <0>        -0.4805
     36 H1         -0.7392    1.8195   -1.9244 H         1 <0>         0.0754
     37 H2          0.5479    1.7315   -3.1507 H         1 <0>         0.0757
     38 H3         -1.1590    1.6176   -3.6423 H         1 <0>         0.0864
     39 H4         -1.3687   -0.5278   -2.4168 H         1 <0>         0.1351
     40 H5         -0.0816   -0.6158   -3.6431 H         1 <0>         0.1358
     41 H6         -0.7693   -2.3864    0.1492 H         1 <0>         0.1500
     42 H7         -0.8224   -4.8439    0.2763 H         1 <0>         0.1423
     43 H8          2.2817   -5.0546   -2.6545 H         1 <0>         0.1467
     44 H9          2.3215   -2.5969   -2.7825 H         1 <0>         0.1526
     45 H10        -1.3042   -5.3153   -2.3391 H         1 <0>         0.1326
     46 H11        -1.7236  -10.2065   -1.7235 H         1 <0>         0.1456
     47 H12         0.4921  -10.3046   -0.9838 H         1 <0>         0.0936
     48 H13         1.5363   -8.8641   -1.0376 H         1 <0>         0.0980
     49 H14         1.9658   -8.2333    1.8806 H         1 <0>         0.0785
     50 H15         0.9691   -7.0796    0.9695 H         1 <0>         0.1013
     51 H16         0.5878   -7.1706    3.5388 H         1 <0>         0.1123
     52 H17        -0.8759   -7.3099    2.5181 H         1 <0>         0.0920
     53 H18         0.6531   -9.5619    3.9576 H         1 <0>         0.1429
     54 H19        -1.1184   -9.2493    3.9401 H         1 <0>         0.1419
     55 H20        -6.0354   -9.8791   -3.9883 H         1 <0>         0.1525
     56 H21        -8.2427   -9.8664   -5.1275 H         1 <0>         0.1454
     57 H22        -9.1377   -7.7065   -5.9686 H         1 <0>         0.1428
     58 H23        -7.8256   -5.6482   -5.6545 H         1 <0>         0.1645
     59 H24        -3.8916   -5.7227   -3.6026 H         1 <0>         0.4308
@<TRIPOS>BOND
     1    1    2 1
     2    1   36 1
     3    1   37 1
     4    1   38 1
     5    2    3 1
     6    2   39 1
     7    2   40 1
     8    3    4 2
     9    3    5 2
    10    3    6 1
    11    6   11 ar
    12    6    7 ar
    13    7    8 ar
    14    7   41 1
    15    8    9 ar
    16    8   42 1
    17    9   10 ar
    18    9   12 1
    19   10   11 ar
    20   10   43 1
    21   11   44 1
    22   12   13 1
    23   13   18 ar
    24   13   14 ar
    25   14   15 ar
    26   14   45 1
    27   15   29 1
    28   15   16 ar
    29   16   17 ar
    30   16   27 1
    31   17   18 ar
    32   17   46 1
    33   18   19 1
    34   19   20 1
    35   19   47 1
    36   19   48 1
    37   20   24 1
    38   20   21 1
    39   21   22 1
    40   21   49 1
    41   21   50 1
    42   22   23 1
    43   22   51 1
    44   22   52 1
    45   23   24 1
    46   23   53 1
    47   23   54 1
    48   24   25 2
    49   24   26 2
    50   27   28 2
    51   28   29 1
    52   28   30 1
    53   29   59 1
    54   30   35 ar
    55   30   31 ar
    56   31   32 ar
    57   31   55 1
    58   32   33 ar
    59   32   56 1
    60   33   34 ar
    61   33   57 1
    62   34   35 ar
    63   34   58 1
@<TRIPOS>MOLECULE
CHEMBL596020__1
   59    63     0     0     0
SMALL
USER_CHARGES

@<TRIPOS>ATOM
      1 C1          2.6828    1.3834    1.0824 C.3       1 <0>        -0.1511
      2 C2          2.5370   -0.1382    1.0162 C.3       1 <0>        -0.6072
      3 S1          0.8254   -0.5990    1.4019 S.o2      1 <0>         2.4944
      4 O1          0.5373   -0.3156    2.7642 O.2       1 <0>        -0.9329
      5 O2         -0.0452   -0.1557    0.3700 O.2       1 <0>        -0.9332
      6 C3          0.7941   -2.3573    1.2920 C.ar      1 <0>        -0.6649
      7 C4          0.5047   -2.9684    0.0859 C.ar      1 <0>        -0.0058
      8 C5          0.4795   -4.3466   -0.0030 C.ar      1 <0>        -0.1595
      9 C6          0.7449   -5.1180    1.1195 C.ar      1 <0>         0.1431
     10 C7          1.0350   -4.5022    2.3287 C.ar      1 <0>        -0.1394
     11 C8          1.0644   -3.1236    2.4108 C.ar      1 <0>        -0.0053
     12 O3          0.7203   -6.4739    1.0349 O.3       1 <0>        -0.2514
     13 C9          1.6832   -7.0848    0.2946 C.ar      1 <0>         0.1310
     14 C10         2.7176   -6.3394   -0.2345 C.ar      1 <0>        -0.1495
     15 C11         3.7076   -6.9693   -0.9961 C.ar      1 <0>         0.0933
     16 C12         3.6358   -8.3573   -1.2131 C.ar      1 <0>         0.0336
     17 C13         2.5888   -9.0912   -0.6731 C.ar      1 <0>        -0.0438
     18 C14         1.6227   -8.4593    0.0797 C.ar      1 <0>        -0.1095
     19 C15         0.4904   -9.2601    0.6692 C.3       1 <0>         0.2126
     20 N1         -0.7014   -9.1114   -0.1696 N.pl3     1 <0>        -0.9800
     21 C16        -1.6972   -8.0260   -0.1137 C.3       1 <0>         0.0663
     22 C17        -2.3326   -7.7936   -1.4972 C.3       1 <0>        -0.1307
     23 C18        -2.6689   -9.2183   -2.0320 C.3       1 <0>        -0.5921
     24 S2         -1.2086  -10.1368   -1.3949 S.o2      1 <0>         2.5565
     25 O4         -1.6136  -11.3337   -0.7447 O.2       1 <0>        -0.9558
     26 O5         -0.1561  -10.1369   -2.3496 O.2       1 <0>        -0.9526
     27 N2          4.7336   -8.6828   -1.9867 N.pl3     1 <0>        -0.5724
     28 H1          4.9695   -9.5671   -2.3082 H         1 <0>         0.4333
     29 C19         5.4252   -7.5244   -2.2152 C.2       1 <0>         0.3423
     30 N3          4.8174   -6.5219   -1.6307 N.2       1 <0>        -0.4762
     31 C20         6.6733   -7.4199   -3.0036 C.ar      1 <0>         0.1765
     32 C21         7.2901   -6.1792   -3.1610 C.ar      1 <0>        -0.1168
     33 C22         8.4572   -6.0977   -3.9010 C.ar      1 <0>        -0.0740
     34 C23         8.9698   -7.2598   -4.4596 C.ar      1 <0>        -0.1554
     35 C24         8.3057   -8.4577   -4.2633 C.ar      1 <0>         0.1074
     36 N4          7.1997   -8.5089   -3.5508 N.ar      1 <0>        -0.4776
     37 H2          2.4304    1.7293    2.0848 H         1 <0>         0.0751
     38 H3          3.7112    1.6603    0.8507 H         1 <0>         0.0862
     39 H4          2.0105    1.8446    0.3589 H         1 <0>         0.0749
     40 H5          2.7893   -0.4841    0.0139 H         1 <0>         0.1363
     41 H6          3.2092   -0.5994    1.7398 H         1 <0>         0.1363
     42 H7          0.2979   -2.3675   -0.7874 H         1 <0>         0.1498
     43 H8          0.2531   -4.8234   -0.9452 H         1 <0>         0.1417
     44 H9          1.2419   -5.1003    3.2038 H         1 <0>         0.1457
     45 H10         1.2948   -2.6438    3.3505 H         1 <0>         0.1519
     46 H11         2.7621   -5.2742   -0.0616 H         1 <0>         0.1387
     47 H12         2.5331  -10.1568   -0.8398 H         1 <0>         0.1387
     48 H13         0.7740  -10.3116    0.7144 H         1 <0>         0.0920
     49 H14         0.2745   -8.8985    1.6746 H         1 <0>         0.1000
     50 H15        -2.4776   -8.2915    0.5994 H         1 <0>         0.0789
     51 H16        -1.2096   -7.1085    0.2158 H         1 <0>         0.1034
     52 H17        -3.2421   -7.2006   -1.4014 H         1 <0>         0.1131
     53 H18        -1.6243   -7.2975   -2.1607 H         1 <0>         0.0927
     54 H19        -3.5976   -9.5945   -1.6029 H         1 <0>         0.1434
     55 H20        -2.7019   -9.2360   -3.1213 H         1 <0>         0.1420
     56 H21         6.8631   -5.2944   -2.7124 H         1 <0>         0.1514
     57 H22         8.9574   -5.1507   -4.0406 H         1 <0>         0.1453
     58 H23         9.8784   -7.2295   -5.0426 H         1 <0>         0.1434
     59 H24         8.7022   -9.3637   -4.6972 H         1 <0>         0.1657
@<TRIPOS>BOND
     1    1    2 1
     2    1   37 1
     3    1   38 1
     4    1   39 1
     5    2    3 1
     6    2   40 1
     7    2   41 1
     8    3    4 2
     9    3    5 2
    10    3    6 1
    11    6   11 ar
    12    6    7 ar
    13    7    8 ar
    14    7   42 1
    15    8    9 ar
    16    8   43 1
    17    9   10 ar
    18    9   12 1
    19   10   11 ar
    20   10   44 1
    21   11   45 1
    22   12   13 1
    23   13   18 ar
    24   13   14 ar
    25   14   15 ar
    26   14   46 1
    27   15   30 1
    28   15   16 ar
    29   16   17 ar
    30   16   27 1
    31   17   18 ar
    32   17   47 1
    33   18   19 1
    34   19   20 1
    35   19   48 1
    36   19   49 1
    37   20   24 1
    38   20   21 1
    39   21   22 1
    40   21   50 1
    41   21   51 1
    42   22   23 1
    43   22   52 1
    44   22   53 1
    45   23   24 1
    46   23   54 1
    47   23   55 1
    48   24   25 2
    49   24   26 2
    50   27   28 1
    51   27   29 1
    52   29   30 2
    53   29   31 1
    54   31   36 ar
    55   31   32 ar
    56   32   33 ar
    57   32   56 1
    58   33   34 ar
    59   33   57 1
    60   34   35 ar
    61   34   58 1
    62   35   36 ar
    63   35   59 1
@<TRIPOS>MOLECULE
CHEMBL562878
   56    58     0     0     0
SMALL
USER_CHARGES

@<TRIPOS>ATOM
      1 C1         -0.0640    1.0346    0.1610 C.3       1 <0>        -0.1614
      2 C2         -0.0989   -0.4339   -0.2670 C.3       1 <0>        -0.1395
      3 C3          0.6630   -0.5997   -1.5834 C.3       1 <0>         0.0807
      4 C4          0.5962   -2.0613   -2.0308 C.3       1 <0>         0.0602
      5 O1          1.0803   -2.9030   -0.9823 O.3       1 <0>        -0.3787
      6 C5          1.0603   -4.2963   -1.2994 C.3       1 <0>         0.0296
      7 O2          2.0280   -0.2213   -1.3946 O.3       1 <0>        -0.2839
      8 C6          2.3815    1.0304   -1.7888 C.ar      1 <0>         0.1513
      9 C7          3.7053    1.4313   -1.7133 C.ar      1 <0>        -0.0829
     10 C8          4.0673    2.7164   -2.1186 C.ar      1 <0>        -0.0749
     11 C9          3.0930    3.5926   -2.5986 C.ar      1 <0>        -0.1414
     12 C10         1.7717    3.1836   -2.6707 C.ar      1 <0>         0.1176
     13 C11         1.4170    1.9027   -2.2715 C.ar      1 <0>        -0.1911
     14 O3          0.8220    4.0362   -3.1376 O.3       1 <0>        -0.2469
     15 C12         0.7525    4.2410   -4.4791 C.ar      1 <0>         0.1735
     16 C13         1.5567    3.5046   -5.3372 C.ar      1 <0>        -0.2165
     17 C14         1.4841    3.7148   -6.7005 C.ar      1 <0>         0.0168
     18 C15         0.6113    4.6583   -7.2103 C.ar      1 <0>        -0.6922
     19 C16        -0.1909    5.3938   -6.3574 C.ar      1 <0>         0.0150
     20 C17        -0.1270    5.1829   -4.9937 C.ar      1 <0>        -0.1616
     21 S1          0.5216    4.9243   -8.9498 S.o2      1 <0>         2.5028
     22 O4          0.0700    6.2645   -9.0888 O.2       1 <0>        -0.9362
     23 O5          1.7962    4.5346   -9.4424 O.2       1 <0>        -0.9369
     24 C18        -0.7524    3.7720   -9.5325 C.3       1 <0>        -0.6511
     25 C19         5.4787    3.1486   -2.0393 C.2       1 <0>         0.5582
     26 O6          6.3259    2.3840   -1.6205 O.2       1 <0>        -0.4520
     27 N1          5.8262    4.3904   -2.4313 N.am      1 <0>        -0.6182
     28 C20         7.1523    4.7965   -2.3568 C.2       1 <0>         0.2681
     29 N2          8.1952    4.1110   -1.9403 N.2       1 <0>        -0.5199
     30 C21         9.4028    4.6443   -1.9311 C.2       1 <0>         0.0624
     31 C22         9.5152    5.9226   -2.3684 C.2       1 <0>        -0.2405
     32 S2          7.8166    6.2826   -2.7844 S.3       1 <0>         0.1149
     33 H1          0.9645    1.3270    0.3727 H         1 <0>         0.0581
     34 H2         -0.4606    1.6564   -0.6415 H         1 <0>         0.0549
     35 H3         -0.6709    1.1665    1.0567 H         1 <0>         0.0630
     36 H4          0.3682   -1.0480    0.5030 H         1 <0>         0.0880
     37 H5         -1.1336   -0.7479   -0.4041 H         1 <0>         0.0799
     38 H6          0.2123    0.0348   -2.3465 H         1 <0>         0.0918
     39 H7         -0.4365   -2.3242   -2.2602 H         1 <0>         0.0717
     40 H8          1.2119   -2.1977   -2.9198 H         1 <0>         0.0605
     41 H9          1.6857   -4.4790   -2.1732 H         1 <0>         0.0430
     42 H10         1.4427   -4.8670   -0.4531 H         1 <0>         0.0895
     43 H11         0.0373   -4.6055   -1.5136 H         1 <0>         0.0421
     44 H12         4.4562    0.7502   -1.3409 H         1 <0>         0.1565
     45 H13         3.3689    4.5883   -2.9130 H         1 <0>         0.1369
     46 H14         0.3865    1.5853   -2.3332 H         1 <0>         0.1519
     47 H15         2.2391    2.7680   -4.9395 H         1 <0>         0.1392
     48 H16         2.1098    3.1419   -7.3688 H         1 <0>         0.1474
     49 H17        -0.8715    6.1305   -6.7581 H         1 <0>         0.1529
     50 H18        -0.7572    5.7542   -4.3283 H         1 <0>         0.1459
     51 H19        -1.6987    3.9976   -9.0408 H         1 <0>         0.1319
     52 H20        -0.8698    3.8753  -10.6112 H         1 <0>         0.1339
     53 H21        -0.4543    2.7507   -9.2956 H         1 <0>         0.1310
     54 H22         5.1501    5.0005   -2.7655 H         1 <0>         0.4254
     55 H23        10.2628    4.0871   -1.5901 H         1 <0>         0.1781
     56 H24        10.3912    6.5493   -2.4468 H         1 <0>         0.2012
@<TRIPOS>BOND
     1    1    2 1
     2    1   33 1
     3    1   34 1
     4    1   35 1
     5    2    3 1
     6    2   36 1
     7    2   37 1
     8    3    4 1
     9    3    7 1
    10    3   38 1
    11    4    5 1
    12    4   39 1
    13    4   40 1
    14    5    6 1
    15    6   41 1
    16    6   42 1
    17    6   43 1
    18    7    8 1
    19    8   13 ar
    20    8    9 ar
    21    9   10 ar
    22    9   44 1
    23   10   11 ar
    24   10   25 1
    25   11   12 ar
    26   11   45 1
    27   12   13 ar
    28   12   14 1
    29   13   46 1
    30   14   15 1
    31   15   20 ar
    32   15   16 ar
    33   16   17 ar
    34   16   47 1
    35   17   18 ar
    36   17   48 1
    37   18   19 ar
    38   18   21 1
    39   19   20 ar
    40   19   49 1
    41   20   50 1
    42   21   22 2
    43   21   23 2
    44   21   24 1
    45   24   51 1
    46   24   52 1
    47   24   53 1
    48   25   26 2
    49   25   27 am
    50   27   28 1
    51   27   54 1
    52   28   32 1
    53   28   29 2
    54   29   30 1
    55   30   31 2
    56   30   55 1
    57   31   32 1
    58   31   56 1
@<TRIPOS>MOLECULE
CHEMBL562878__1
   56    58     0     0     0
SMALL
USER_CHARGES

@<TRIPOS>ATOM
      1 C1         -0.0547    1.4986    0.1398 C.3       1 <0>        -0.1617
      2 C2         -0.0793   -0.0283    0.0442 C.3       1 <0>        -0.1393
      3 C3          0.5720   -0.4677   -1.2687 C.3       1 <0>         0.0811
      4 C4          0.6540   -1.9949   -1.3112 C.3       1 <0>         0.0601
      5 O1         -0.6480   -2.5477   -1.1080 O.3       1 <0>        -0.3789
      6 C5         -0.6828   -3.9761   -1.1295 C.3       1 <0>         0.0295
      7 O2         -0.2123   -0.0020   -2.3687 O.3       1 <0>        -0.2842
      8 C6          0.2053    1.1339   -2.9871 C.ar      1 <0>         0.1509
      9 C7         -0.4425    1.5785   -4.1280 C.ar      1 <0>        -0.0823
     10 C8         -0.0133    2.7450   -4.7619 C.ar      1 <0>        -0.0765
     11 C9          1.0676    3.4590   -4.2432 C.ar      1 <0>        -0.1296
     12 C10         1.7097    3.0073   -3.1020 C.ar      1 <0>         0.1165
     13 C11         1.2760    1.8494   -2.4717 C.ar      1 <0>        -0.2016
     14 O3          2.7628    3.7015   -2.5962 O.3       1 <0>        -0.2465
     15 C12         4.0116    3.2086   -2.8056 C.ar      1 <0>         0.1740
     16 C13         4.1925    2.0932   -3.6110 C.ar      1 <0>        -0.2165
     17 C14         5.4631    1.5941   -3.8222 C.ar      1 <0>         0.0165
     18 C15         6.5541    2.2045   -3.2315 C.ar      1 <0>        -0.6924
     19 C16         6.3765    3.3158   -2.4281 C.ar      1 <0>         0.0150
     20 C17         5.1087    3.8230   -2.2190 C.ar      1 <0>        -0.1617
     21 S1          8.1733    1.5649   -3.5025 S.o2      1 <0>         2.5028
     22 O4          8.9165    1.9629   -2.3586 O.2       1 <0>        -0.9365
     23 O5          7.9752    0.1884   -3.7948 O.2       1 <0>        -0.9376
     24 C18         8.7781    2.4355   -4.9745 C.3       1 <0>        -0.6508
     25 C19        -0.7014    3.2228   -5.9798 C.2       1 <0>         0.5589
     26 O6         -1.6426    2.5993   -6.4305 O.2       1 <0>        -0.4518
     27 N1         -0.2852    4.3498   -6.5906 N.am      1 <0>        -0.6183
     28 C20        -0.9317    4.7989   -7.7350 C.2       1 <0>         0.2688
     29 N2         -1.9604    4.2634   -8.3562 N.2       1 <0>        -0.5199
     30 C21        -2.4647    4.8171   -9.4434 C.2       1 <0>         0.0628
     31 C22        -1.8755    5.9555   -9.8851 C.2       1 <0>        -0.2405
     32 S2         -0.5939    6.1641   -8.6595 S.3       1 <0>         0.1130
     33 H1          0.9782    1.8426    0.1931 H         1 <0>         0.0536
     34 H2         -0.5349    1.9255   -0.7407 H         1 <0>         0.0583
     35 H3         -0.5898    1.8153    1.0350 H         1 <0>         0.0636
     36 H4          0.4713   -0.4537    0.8832 H         1 <0>         0.0808
     37 H5         -1.1115   -0.3775    0.0725 H         1 <0>         0.0880
     38 H6          1.5757   -0.0479   -1.3346 H         1 <0>         0.0912
     39 H7          1.0357   -2.3113   -2.2819 H         1 <0>         0.0610
     40 H8          1.3239   -2.3448   -0.5257 H         1 <0>         0.0724
     41 H9         -0.0407   -4.3671   -0.3402 H         1 <0>         0.0423
     42 H10        -1.7055   -4.3171   -0.9681 H         1 <0>         0.0893
     43 H11        -0.3289   -4.3336   -2.0964 H         1 <0>         0.0431
     44 H12        -1.2785    1.0228   -4.5264 H         1 <0>         0.1565
     45 H13         1.4033    4.3622   -4.7310 H         1 <0>         0.1387
     46 H14         1.7761    1.5024   -1.5796 H         1 <0>         0.1506
     47 H15         3.3406    1.6156   -4.0721 H         1 <0>         0.1388
     48 H16         5.6044    0.7260   -4.4490 H         1 <0>         0.1473
     49 H17         7.2303    3.7905   -1.9675 H         1 <0>         0.1529
     50 H18         4.9711    4.6938   -1.5952 H         1 <0>         0.1460
     51 H19         8.7955    3.5080   -4.7808 H         1 <0>         0.1321
     52 H20         9.7854    2.0927   -5.2112 H         1 <0>         0.1339
     53 H21         8.1169    2.2289   -5.8161 H         1 <0>         0.1313
     54 H22         0.4658    4.8474   -6.2311 H         1 <0>         0.4256
     55 H23        -3.3087    4.3825   -9.9582 H         1 <0>         0.1782
     56 H24        -2.1169    6.5689  -10.7405 H         1 <0>         0.2011
@<TRIPOS>BOND
     1    1    2 1
     2    1   33 1
     3    1   34 1
     4    1   35 1
     5    2    3 1
     6    2   36 1
     7    2   37 1
     8    3    4 1
     9    3    7 1
    10    3   38 1
    11    4    5 1
    12    4   39 1
    13    4   40 1
    14    5    6 1
    15    6   41 1
    16    6   42 1
    17    6   43 1
    18    7    8 1
    19    8   13 ar
    20    8    9 ar
    21    9   10 ar
    22    9   44 1
    23   10   11 ar
    24   10   25 1
    25   11   12 ar
    26   11   45 1
    27   12   13 ar
    28   12   14 1
    29   13   46 1
    30   14   15 1
    31   15   20 ar
    32   15   16 ar
    33   16   17 ar
    34   16   47 1
    35   17   18 ar
    36   17   48 1
    37   18   19 ar
    38   18   21 1
    39   19   20 ar
    40   19   49 1
    41   20   50 1
    42   21   22 2
    43   21   23 2
    44   21   24 1
    45   24   51 1
    46   24   52 1
    47   24   53 1
    48   25   26 2
    49   25   27 am
    50   27   28 1
    51   27   54 1
    52   28   32 1
    53   28   29 2
    54   29   30 1
    55   30   31 2
    56   30   55 1
    57   31   32 1
    58   31   56 1
@<TRIPOS>MOLECULE
CHEMBL604065
   58    62     0     0     0
SMALL
USER_CHARGES

@<TRIPOS>ATOM
      1 C1         -2.2964    1.3109    1.8119 C.3       1 <0>        -0.1514
      2 C2         -2.1418   -0.2062    1.6878 C.3       1 <0>        -0.6075
      3 S1         -1.6133   -0.6244    0.0036 S.o2      1 <0>         2.4945
      4 O1         -2.6539   -0.3389   -0.9210 O.2       1 <0>        -0.9314
      5 O2         -0.2918   -0.1551   -0.2254 O.2       1 <0>        -0.9318
      6 C3         -1.4744   -2.3809   -0.0042 C.ar      1 <0>        -0.6648
      7 C4         -0.2754   -2.9799    0.3357 C.ar      1 <0>        -0.0070
      8 C5         -0.1638   -4.3567    0.3308 C.ar      1 <0>        -0.1594
      9 C6         -1.2564   -5.1388   -0.0158 C.ar      1 <0>         0.1421
     10 C7         -2.4585   -4.5352   -0.3565 C.ar      1 <0>        -0.1392
     11 C8         -2.5661   -3.1581   -0.3449 C.ar      1 <0>        -0.0052
     12 O3         -1.1492   -6.4933   -0.0219 O.3       1 <0>        -0.2485
     13 C9         -0.9794   -7.1253    1.1693 C.ar      1 <0>         0.1591
     14 C10        -1.0498   -6.4031    2.3478 C.ar      1 <0>        -0.1985
     15 C11        -0.8760   -7.0515    3.5620 C.ar      1 <0>         0.0968
     16 C12        -0.6297   -8.4367    3.5879 C.ar      1 <0>         0.0269
     17 C13        -0.5621   -9.1475    2.3845 C.ar      1 <0>         0.0043
     18 C14        -0.7412   -8.4972    1.1978 C.ar      1 <0>        -0.1327
     19 C15        -0.6736   -9.2699   -0.0943 C.3       1 <0>         0.1766
     20 N1          0.6459   -9.0874   -0.7041 N.am      1 <0>        -0.6132
     21 C16         0.9817   -8.0123   -1.6450 C.3       1 <0>         0.0991
     22 C17         2.5252   -7.9538   -1.6701 C.3       1 <0>        -0.1332
     23 C18         2.9021   -9.3960   -1.2593 C.3       1 <0>        -0.1558
     24 C19         1.7061   -9.8796   -0.4692 C.2       1 <0>         0.5163
     25 O4          1.7035  -10.8434    0.2670 O.2       1 <0>        -0.5281
     26 N2         -0.5028   -8.7960    4.8880 N.2       1 <0>        -0.4572
     27 C20        -0.6518   -7.7433    5.6525 C.2       1 <0>         0.3270
     28 N3         -0.8852   -6.6373    4.8785 N.pl3     1 <0>        -0.5778
     29 C21        -0.5791   -7.7477    7.1304 C.ar      1 <0>         0.1791
     30 C22        -0.3287   -8.9411    7.8071 C.ar      1 <0>        -0.1176
     31 C23        -0.2636   -8.9290    9.1898 C.ar      1 <0>        -0.0728
     32 C24        -0.4511   -7.7236    9.8512 C.ar      1 <0>        -0.1568
     33 C25        -0.6958   -6.5770    9.1167 C.ar      1 <0>         0.1063
     34 N4         -0.7474   -6.6144    7.8015 N.ar      1 <0>        -0.4803
     35 H1         -2.6139    1.5623    2.8238 H         1 <0>         0.0863
     36 H2         -1.3413    1.7919    1.6008 H         1 <0>         0.0754
     37 H3         -3.0440    1.6595    1.0993 H         1 <0>         0.0757
     38 H4         -1.3942   -0.5547    2.4003 H         1 <0>         0.1350
     39 H5         -3.0969   -0.6872    1.8989 H         1 <0>         0.1357
     40 H6          0.5748   -2.3707    0.6050 H         1 <0>         0.1502
     41 H7          0.7730   -4.8240    0.5961 H         1 <0>         0.1417
     42 H8         -3.3104   -5.1416   -0.6266 H         1 <0>         0.1466
     43 H9         -3.5027   -2.6879   -0.6057 H         1 <0>         0.1528
     44 H10        -1.2388   -5.3401    2.3223 H         1 <0>         0.1329
     45 H11        -0.3734  -10.2108    2.3949 H         1 <0>         0.1478
     46 H12        -0.8378  -10.3286    0.1065 H         1 <0>         0.0961
     47 H13        -1.4424   -8.9059   -0.7759 H         1 <0>         0.0948
     48 H14         0.5970   -8.2460   -2.6377 H         1 <0>         0.0730
     49 H15         0.5739   -7.0639   -1.2953 H         1 <0>         0.0840
     50 H16         2.8907   -7.7252   -2.6712 H         1 <0>         0.0914
     51 H17         2.9000   -7.2311   -0.9452 H         1 <0>         0.0794
     52 H18         3.0569  -10.0161   -2.1423 H         1 <0>         0.1054
     53 H19         3.7940   -9.3935   -0.6327 H         1 <0>         0.1009
     54 H20        -0.1878   -9.8617    7.2602 H         1 <0>         0.1523
     55 H21        -0.0715   -9.8374    9.7414 H         1 <0>         0.1456
     56 H22        -0.4067   -7.6811   10.9295 H         1 <0>         0.1431
     57 H23        -0.8421   -5.6375    9.6289 H         1 <0>         0.1648
     58 H24        -1.0295   -5.7322    5.1963 H         1 <0>         0.4310
@<TRIPOS>BOND
     1    1    2 1
     2    1   35 1
     3    1   36 1
     4    1   37 1
     5    2    3 1
     6    2   38 1
     7    2   39 1
     8    3    4 2
     9    3    5 2
    10    3    6 1
    11    6   11 ar
    12    6    7 ar
    13    7    8 ar
    14    7   40 1
    15    8    9 ar
    16    8   41 1
    17    9   10 ar
    18    9   12 1
    19   10   11 ar
    20   10   42 1
    21   11   43 1
    22   12   13 1
    23   13   18 ar
    24   13   14 ar
    25   14   15 ar
    26   14   44 1
    27   15   28 1
    28   15   16 ar
    29   16   17 ar
    30   16   26 1
    31   17   18 ar
    32   17   45 1
    33   18   19 1
    34   19   20 1
    35   19   46 1
    36   19   47 1
    37   20   24 am
    38   20   21 1
    39   21   22 1
    40   21   48 1
    41   21   49 1
    42   22   23 1
    43   22   50 1
    44   22   51 1
    45   23   24 1
    46   23   52 1
    47   23   53 1
    48   24   25 2
    49   26   27 2
    50   27   28 1
    51   27   29 1
    52   28   58 1
    53   29   34 ar
    54   29   30 ar
    55   30   31 ar
    56   30   54 1
    57   31   32 ar
    58   31   55 1
    59   32   33 ar
    60   32   56 1
    61   33   34 ar
    62   33   57 1
@<TRIPOS>MOLECULE
CHEMBL604065__1
   58    62     0     0     0
SMALL
USER_CHARGES

@<TRIPOS>ATOM
      1 C1          2.6828    1.3834    1.0826 C.3       1 <0>        -0.1510
      2 C2          2.5370   -0.1382    1.0164 C.3       1 <0>        -0.6073
      3 S1          0.8253   -0.5990    1.4018 S.o2      1 <0>         2.4946
      4 O1          0.5371   -0.3156    2.7641 O.2       1 <0>        -0.9328
      5 O2         -0.0451   -0.1557    0.3698 O.2       1 <0>        -0.9328
      6 C3          0.7940   -2.3573    1.2920 C.ar      1 <0>        -0.6646
      7 C4          0.5048   -2.9684    0.0858 C.ar      1 <0>        -0.0056
      8 C5          0.4796   -4.3466   -0.0030 C.ar      1 <0>        -0.1583
      9 C6          0.7449   -5.1180    1.1195 C.ar      1 <0>         0.1432
     10 C7          1.0349   -4.5022    2.3287 C.ar      1 <0>        -0.1395
     11 C8          1.0643   -3.1236    2.4108 C.ar      1 <0>        -0.0053
     12 O3          0.7203   -6.4739    1.0349 O.3       1 <0>        -0.2521
     13 C9          1.6832   -7.0848    0.2946 C.ar      1 <0>         0.1288
     14 C10         2.7176   -6.3394   -0.2345 C.ar      1 <0>        -0.1486
     15 C11         3.7076   -6.9693   -0.9961 C.ar      1 <0>         0.0929
     16 C12         3.6358   -8.3573   -1.2131 C.ar      1 <0>         0.0312
     17 C13         2.5888   -9.0912   -0.6731 C.ar      1 <0>        -0.0469
     18 C14         1.6227   -8.4593    0.0797 C.ar      1 <0>        -0.1050
     19 C15         0.4904   -9.2601    0.6692 C.3       1 <0>         0.1756
     20 N1         -0.7014   -9.1114   -0.1696 N.am      1 <0>        -0.6120
     21 C16        -1.7122   -8.0619    0.0062 C.3       1 <0>         0.0984
     22 C17        -2.5063   -8.0284   -1.3184 C.3       1 <0>        -0.1332
     23 C18        -2.3010   -9.4675   -1.8456 C.3       1 <0>        -0.1558
     24 C19        -1.0068   -9.9152   -1.2028 C.2       1 <0>         0.5170
     25 O4         -0.3427  -10.8631   -1.5654 O.2       1 <0>        -0.5319
     26 N2          4.7336   -8.6828   -1.9867 N.pl3     1 <0>        -0.5728
     27 H1          4.9695   -9.5671   -2.3082 H         1 <0>         0.4332
     28 C20         5.4252   -7.5244   -2.2152 C.2       1 <0>         0.3429
     29 N3          4.8174   -6.5219   -1.6307 N.2       1 <0>        -0.4759
     30 C21         6.6733   -7.4199   -3.0036 C.ar      1 <0>         0.1758
     31 C22         7.2901   -6.1792   -3.1610 C.ar      1 <0>        -0.1166
     32 C23         8.4572   -6.0977   -3.9010 C.ar      1 <0>        -0.0739
     33 C24         8.9698   -7.2598   -4.4596 C.ar      1 <0>        -0.1549
     34 C25         8.3057   -8.4577   -4.2633 C.ar      1 <0>         0.1073
     35 N4          7.1997   -8.5089   -3.5508 N.ar      1 <0>        -0.4777
     36 H2          2.4303    1.7293    2.0849 H         1 <0>         0.0751
     37 H3          3.7113    1.6603    0.8509 H         1 <0>         0.0862
     38 H4          2.0106    1.8446    0.3590 H         1 <0>         0.0750
     39 H5          2.7894   -0.4841    0.0140 H         1 <0>         0.1362
     40 H6          3.2091   -0.5994    1.7399 H         1 <0>         0.1362
     41 H7          0.2980   -2.3675   -0.7875 H         1 <0>         0.1500
     42 H8          0.2533   -4.8234   -0.9453 H         1 <0>         0.1412
     43 H9          1.2417   -5.1003    3.2039 H         1 <0>         0.1456
     44 H10         1.2946   -2.6438    3.3505 H         1 <0>         0.1521
     45 H11         2.7621   -5.2742   -0.0616 H         1 <0>         0.1390
     46 H12         2.5331  -10.1568   -0.8398 H         1 <0>         0.1408
     47 H13         0.7740  -10.3116    0.7144 H         1 <0>         0.0947
     48 H14         0.2745   -8.8985    1.6746 H         1 <0>         0.0969
     49 H15        -2.3735   -8.3104    0.8363 H         1 <0>         0.0735
     50 H16        -1.2305   -7.1000    0.1817 H         1 <0>         0.0861
     51 H17        -3.5617   -7.8268   -1.1355 H         1 <0>         0.0919
     52 H18        -2.0847   -7.2967   -2.0075 H         1 <0>         0.0802
     53 H19        -3.1266  -10.1084   -1.5364 H         1 <0>         0.1056
     54 H20        -2.2039   -9.4658   -2.9312 H         1 <0>         0.1008
     55 H21         6.8631   -5.2944   -2.7124 H         1 <0>         0.1514
     56 H22         8.9574   -5.1507   -4.0406 H         1 <0>         0.1456
     57 H23         9.8784   -7.2295   -5.0426 H         1 <0>         0.1437
     58 H24         8.7022   -9.3637   -4.6972 H         1 <0>         0.1659
@<TRIPOS>BOND
     1    1    2 1
     2    1   36 1
     3    1   37 1
     4    1   38 1
     5    2    3 1
     6    2   39 1
     7    2   40 1
     8    3    4 2
     9    3    5 2
    10    3    6 1
    11    6   11 ar
    12    6    7 ar
    13    7    8 ar
    14    7   41 1
    15    8    9 ar
    16    8   42 1
    17    9   10 ar
    18    9   12 1
    19   10   11 ar
    20   10   43 1
    21   11   44 1
    22   12   13 1
    23   13   18 ar
    24   13   14 ar
    25   14   15 ar
    26   14   45 1
    27   15   29 1
    28   15   16 ar
    29   16   17 ar
    30   16   26 1
    31   17   18 ar
    32   17   46 1
    33   18   19 1
    34   19   20 1
    35   19   47 1
    36   19   48 1
    37   20   24 am
    38   20   21 1
    39   21   22 1
    40   21   49 1
    41   21   50 1
    42   22   23 1
    43   22   51 1
    44   22   52 1
    45   23   24 1
    46   23   53 1
    47   23   54 1
    48   24   25 2
    49   26   27 1
    50   26   28 1
    51   28   29 2
    52   28   30 1
    53   30   35 ar
    54   30   31 ar
    55   31   32 ar
    56   31   55 1
    57   32   33 ar
    58   32   56 1
    59   33   34 ar
    60   33   57 1
    61   34   35 ar
    62   34   58 1
@<TRIPOS>MOLECULE
CHEMBL595362
   56    60     0     0     0
SMALL
USER_CHARGES

@<TRIPOS>ATOM
      1 C1         -0.4371    1.3619   -2.8666 C.3       1 <0>        -0.1515
      2 C2         -0.3833   -0.1582   -2.7011 C.3       1 <0>        -0.6072
      3 S1          0.8175   -0.5837   -1.4097 S.o2      1 <0>         2.4941
      4 O1          2.1339   -0.2688   -1.8425 O.2       1 <0>        -0.9311
      5 O2          0.3480   -0.1469   -0.1417 O.2       1 <0>        -0.9316
      6 C3          0.7823   -2.3431   -1.3206 C.ar      1 <0>        -0.6642
      7 C4         -0.1021   -2.9731   -0.4646 C.ar      1 <0>        -0.0067
      8 C5         -0.1321   -4.3523   -0.3931 C.ar      1 <0>        -0.1605
      9 C6          0.7263   -5.1055   -1.1813 C.ar      1 <0>         0.1409
     10 C7          1.6129   -4.4707   -2.0395 C.ar      1 <0>        -0.1383
     11 C8          1.6351   -3.0913   -2.1110 C.ar      1 <0>        -0.0049
     12 O3          0.6992   -6.4623   -1.1126 O.3       1 <0>        -0.2501
     13 C9         -0.4074   -7.1024   -1.5737 C.ar      1 <0>         0.1587
     14 C10        -1.4041   -6.3829   -2.2094 C.ar      1 <0>        -0.1977
     15 C11        -2.5324   -7.0396   -2.6789 C.ar      1 <0>         0.0983
     16 C12        -2.6564   -8.4307   -2.5063 C.ar      1 <0>         0.0268
     17 C13        -1.6369   -9.1387   -1.8604 C.ar      1 <0>         0.0082
     18 C14        -0.5298   -8.4800   -1.4091 C.ar      1 <0>        -0.1397
     19 C15         0.5675   -9.2496   -0.7201 C.3       1 <0>         0.2001
     20 N1          0.4333   -9.0981    0.7309 N.am      1 <0>        -0.6277
     21 C16         1.0484   -8.0398    1.5561 C.3       1 <0>         0.0633
     22 C17         0.2651   -8.1641    2.8846 C.3       1 <0>         0.0382
     23 O4         -0.1857   -9.5320    2.8403 O.3       1 <0>        -0.3277
     24 C18        -0.2776   -9.8958    1.5499 C.2       1 <0>         0.6418
     25 O5         -0.9303  -10.8452    1.1638 O.2       1 <0>        -0.5113
     26 N2         -3.8402   -8.7976   -3.0537 N.2       1 <0>        -0.4566
     27 C19        -4.4442   -7.7441   -3.5439 C.2       1 <0>         0.3288
     28 N3         -3.6745   -6.6299   -3.3368 N.pl3     1 <0>        -0.5776
     29 C20        -5.7604   -7.7555   -4.2199 C.ar      1 <0>         0.1782
     30 C21        -6.4530   -8.9572   -4.3652 C.ar      1 <0>        -0.1171
     31 C22        -7.6831   -8.9516   -4.9999 C.ar      1 <0>        -0.0727
     32 C23        -8.1811   -7.7442   -5.4688 C.ar      1 <0>        -0.1562
     33 C24        -7.4405   -6.5892   -5.2905 C.ar      1 <0>         0.1063
     34 N4         -6.2751   -6.6208   -4.6785 N.ar      1 <0>        -0.4802
     35 H1         -0.7392    1.8195   -1.9246 H         1 <0>         0.0755
     36 H2          0.5482    1.7316   -3.1506 H         1 <0>         0.0758
     37 H3         -1.1586    1.6176   -3.6426 H         1 <0>         0.0865
     38 H4         -1.3685   -0.5279   -2.4171 H         1 <0>         0.1350
     39 H5         -0.0811   -0.6157   -3.6432 H         1 <0>         0.1358
     40 H6         -0.7697   -2.3864    0.1490 H         1 <0>         0.1505
     41 H7         -0.8228   -4.8439    0.2759 H         1 <0>         0.1414
     42 H8          2.2820   -5.0546   -2.6541 H         1 <0>         0.1470
     43 H9          2.3218   -2.5968   -2.7821 H         1 <0>         0.1532
     44 H10        -1.3042   -5.3153   -2.3391 H         1 <0>         0.1335
     45 H11        -1.7236  -10.2065   -1.7235 H         1 <0>         0.1497
     46 H12         0.4921  -10.3046   -0.9838 H         1 <0>         0.1018
     47 H13         1.5363   -8.8641   -1.0376 H         1 <0>         0.1015
     48 H14         2.1093   -8.2359    1.7113 H         1 <0>         0.0907
     49 H15         0.8958   -7.0588    1.1060 H         1 <0>         0.0998
     50 H16         0.9203   -7.9977    3.7397 H         1 <0>         0.1212
     51 H17        -0.5801   -7.4761    2.9039 H         1 <0>         0.0901
     52 H18        -6.0354   -9.8791   -3.9883 H         1 <0>         0.1525
     53 H19        -8.2427   -9.8664   -5.1275 H         1 <0>         0.1459
     54 H20        -9.1377   -7.7065   -5.9686 H         1 <0>         0.1433
     55 H21        -7.8256   -5.6482   -5.6545 H         1 <0>         0.1649
     56 H22        -3.8916   -5.7227   -3.6026 H         1 <0>         0.4314
@<TRIPOS>BOND
     1    1    2 1
     2    1   35 1
     3    1   36 1
     4    1   37 1
     5    2    3 1
     6    2   38 1
     7    2   39 1
     8    3    4 2
     9    3    5 2
    10    3    6 1
    11    6   11 ar
    12    6    7 ar
    13    7    8 ar
    14    7   40 1
    15    8    9 ar
    16    8   41 1
    17    9   10 ar
    18    9   12 1
    19   10   11 ar
    20   10   42 1
    21   11   43 1
    22   12   13 1
    23   13   18 ar
    24   13   14 ar
    25   14   15 ar
    26   14   44 1
    27   15   28 1
    28   15   16 ar
    29   16   17 ar
    30   16   26 1
    31   17   18 ar
    32   17   45 1
    33   18   19 1
    34   19   20 1
    35   19   46 1
    36   19   47 1
    37   20   24 am
    38   20   21 1
    39   21   22 1
    40   21   48 1
    41   21   49 1
    42   22   23 1
    43   22   50 1
    44   22   51 1
    45   23   24 1
    46   24   25 2
    47   26   27 2
    48   27   28 1
    49   27   29 1
    50   28   56 1
    51   29   34 ar
    52   29   30 ar
    53   30   31 ar
    54   30   52 1
    55   31   32 ar
    56   31   53 1
    57   32   33 ar
    58   32   54 1
    59   33   34 ar
    60   33   55 1
@<TRIPOS>MOLECULE
CHEMBL595362__1
   56    60     0     0     0
SMALL
USER_CHARGES

@<TRIPOS>ATOM
      1 C1         -0.4367    1.3628   -2.8647 C.3       1 <0>        -0.1511
      2 C2         -0.3829   -0.1574   -2.7000 C.3       1 <0>        -0.6072
      3 S1          0.8175   -0.5836   -1.4086 S.o2      1 <0>         2.4943
      4 O1          2.1340   -0.2686   -1.8409 O.2       1 <0>        -0.9325
      5 O2          0.3477   -0.1476   -0.1404 O.2       1 <0>        -0.9326
      6 C3          0.7822   -2.3431   -1.3205 C.ar      1 <0>        -0.6640
      7 C4         -0.1023   -2.9736   -0.4649 C.ar      1 <0>        -0.0053
      8 C5         -0.1321   -4.3528   -0.3939 C.ar      1 <0>        -0.1594
      9 C6          0.7268   -5.1056   -1.1821 C.ar      1 <0>         0.1420
     10 C7          1.6135   -4.4703   -2.0398 C.ar      1 <0>        -0.1386
     11 C8          1.6352   -3.0909   -2.1111 C.ar      1 <0>        -0.0050
     12 O3          0.6998   -6.4624   -1.1138 O.3       1 <0>        -0.2537
     13 C9         -0.4070   -7.1029   -1.5754 C.ar      1 <0>         0.1291
     14 C10        -1.4007   -6.3844   -2.2093 C.ar      1 <0>        -0.1484
     15 C11        -2.5390   -7.0447   -2.6838 C.ar      1 <0>         0.0952
     16 C12        -2.6562   -8.4355   -2.5083 C.ar      1 <0>         0.0302
     17 C13        -1.6470   -9.1421   -1.8689 C.ar      1 <0>        -0.0425
     18 C14        -0.5283   -8.4803   -1.4108 C.ar      1 <0>        -0.1128
     19 C15         0.5681   -9.2514   -0.7221 C.3       1 <0>         0.1993
     20 N1          0.4336   -9.1010    0.7289 N.am      1 <0>        -0.6268
     21 C16         1.0493   -8.0438    1.5552 C.3       1 <0>         0.0629
     22 C17         0.2656   -8.1685    2.8834 C.3       1 <0>         0.0380
     23 O4         -0.1864   -9.5360    2.8378 O.3       1 <0>        -0.3275
     24 C18        -0.2782   -9.8986    1.5472 C.2       1 <0>         0.6426
     25 O5         -0.9316  -10.8472    1.1601 O.2       1 <0>        -0.5152
     26 N2         -3.8664   -8.7935   -3.0711 N.pl3     1 <0>        -0.5722
     27 H1         -4.2405   -9.6876   -3.1116 H         1 <0>         0.4338
     28 C19        -4.4389   -7.6508   -3.5599 C.2       1 <0>         0.3453
     29 N3         -3.6543   -6.6274   -3.3292 N.2       1 <0>        -0.4765
     30 C20        -5.7479   -7.5815   -4.2469 C.ar      1 <0>         0.1747
     31 C21        -6.2235   -6.3540   -4.7067 C.ar      1 <0>        -0.1162
     32 C22        -7.4495   -6.3055   -5.3479 C.ar      1 <0>        -0.0739
     33 C23        -8.1602   -7.4863   -5.5084 C.ar      1 <0>        -0.1543
     34 C24        -7.6282   -8.6696   -5.0273 C.ar      1 <0>         0.1075
     35 N4         -6.4574   -8.6893   -4.4254 N.ar      1 <0>        -0.4773
     36 H2         -0.7390    1.8198   -1.9224 H         1 <0>         0.0751
     37 H3          0.5487    1.7326   -3.1482 H         1 <0>         0.0752
     38 H4         -1.1580    1.6189   -3.6407 H         1 <0>         0.0864
     39 H5         -1.3683   -0.5272   -2.4165 H         1 <0>         0.1363
     40 H6         -0.0806   -0.6144   -3.6423 H         1 <0>         0.1364
     41 H7         -0.7703   -2.3872    0.1485 H         1 <0>         0.1503
     42 H8         -0.8229   -4.8448    0.2747 H         1 <0>         0.1408
     43 H9          2.2829   -5.0539   -2.6543 H         1 <0>         0.1461
     44 H10         2.3218   -2.5961   -2.7820 H         1 <0>         0.1525
     45 H11        -1.3000   -5.3168   -2.3381 H         1 <0>         0.1397
     46 H12        -1.7368  -10.2098   -1.7336 H         1 <0>         0.1427
     47 H13         0.4919  -10.3061   -0.9867 H         1 <0>         0.1002
     48 H14         1.5373   -8.8664   -1.0391 H         1 <0>         0.1034
     49 H15         2.1100   -8.2410    1.7106 H         1 <0>         0.0912
     50 H16         0.8977   -7.0623    1.1059 H         1 <0>         0.1018
     51 H17         0.9206   -8.0034    3.7388 H         1 <0>         0.1218
     52 H18        -0.5791   -7.4798    2.9030 H         1 <0>         0.0910
     53 H19        -5.6439   -5.4539   -4.5644 H         1 <0>         0.1515
     54 H20        -7.8441   -5.3694   -5.7146 H         1 <0>         0.1457
     55 H21        -9.1197   -7.4818   -6.0040 H         1 <0>         0.1439
     56 H22        -8.1793   -9.5902   -5.1505 H         1 <0>         0.1661
@<TRIPOS>BOND
     1    1    2 1
     2    1   36 1
     3    1   37 1
     4    1   38 1
     5    2    3 1
     6    2   39 1
     7    2   40 1
     8    3    4 2
     9    3    5 2
    10    3    6 1
    11    6   11 ar
    12    6    7 ar
    13    7    8 ar
    14    7   41 1
    15    8    9 ar
    16    8   42 1
    17    9   10 ar
    18    9   12 1
    19   10   11 ar
    20   10   43 1
    21   11   44 1
    22   12   13 1
    23   13   18 ar
    24   13   14 ar
    25   14   15 ar
    26   14   45 1
    27   15   29 1
    28   15   16 ar
    29   16   17 ar
    30   16   26 1
    31   17   18 ar
    32   17   46 1
    33   18   19 1
    34   19   20 1
    35   19   47 1
    36   19   48 1
    37   20   24 am
    38   20   21 1
    39   21   22 1
    40   21   49 1
    41   21   50 1
    42   22   23 1
    43   22   51 1
    44   22   52 1
    45   23   24 1
    46   24   25 2
    47   26   27 1
    48   26   28 1
    49   28   29 2
    50   28   30 1
    51   30   35 ar
    52   30   31 ar
    53   31   32 ar
    54   31   53 1
    55   32   33 ar
    56   32   54 1
    57   33   34 ar
    58   33   55 1
    59   34   35 ar
    60   34   56 1
@<TRIPOS>MOLECULE
CHEMBL1164578
   61    64     0     0     0
SMALL
USER_CHARGES

@<TRIPOS>ATOM
      1 C1          0.4605    1.2691   -0.6191 C.3       1 <0>        -0.1410
      2 C2          0.4350   -0.2605   -0.6469 C.3       1 <0>        -0.0229
      3 C3          1.2755   -0.8057    0.5095 C.3       1 <0>        -0.1455
      4 C4         -0.9861   -0.7418   -0.5056 C.2       1 <0>         0.0952
      5 C5         -1.5656   -0.8904    0.7110 C.2       1 <0>        -0.2753
      6 S1         -3.1885   -1.4654    0.2384 S.3       1 <0>         0.2126
      7 C6         -2.9621   -1.4563   -1.4293 C.2       1 <0>         0.2431
      8 N1         -1.7238   -1.0323   -1.5611 N.2       1 <0>        -0.5495
      9 N2         -3.8657   -1.8069   -2.4256 N.am      1 <0>        -0.6106
     10 C7         -5.1062   -2.2181   -2.0960 C.2       1 <0>         0.5184
     11 O1         -5.4051   -2.3697   -0.9304 O.2       1 <0>        -0.4830
     12 C8         -6.1218   -2.4894   -3.1757 C.3       1 <0>        -0.0661
     13 C9         -6.3067   -1.2331   -4.0292 C.3       1 <0>        -0.1082
     14 C10        -7.2186   -1.5523   -5.2156 C.3       1 <0>        -0.0890
     15 C11        -6.5205   -2.5503   -6.1446 C.3       1 <0>        -0.1560
     16 C12        -7.4063   -2.8031   -7.3674 C.3       1 <0>         0.0598
     17 O2         -7.6682   -1.5636   -8.0285 O.3       1 <0>        -0.3812
     18 C13        -8.3618   -0.6081   -7.2234 C.3       1 <0>         0.0599
     19 C14        -7.5144   -0.2671   -5.9949 C.3       1 <0>        -0.1513
     20 C15        -7.4375   -2.8661   -2.5447 C.ar      1 <0>        -0.0154
     21 C16        -8.0804   -1.9770   -1.7037 C.ar      1 <0>        -0.1077
     22 C17        -9.2872   -2.3226   -1.1249 C.ar      1 <0>        -0.0211
     23 C18        -9.8513   -3.5570   -1.3873 C.ar      1 <0>        -0.6505
     24 C19        -9.2088   -4.4457   -2.2289 C.ar      1 <0>        -0.0191
     25 C20        -8.0041   -4.0985   -2.8112 C.ar      1 <0>        -0.1279
     26 S2        -11.3890   -3.9979   -0.6485 S.o2      1 <0>         2.5241
     27 O3        -11.3714   -5.4177   -0.5945 O.2       1 <0>        -0.9327
     28 O4        -11.4520   -3.2283    0.5444 O.2       1 <0>        -0.9309
     29 C21       -12.6499   -3.4328   -1.8239 C.3       1 <0>        -0.6700
     30 C22       -13.4550   -4.5024   -2.5646 C.3       1 <0>        -0.1254
     31 C23       -14.1156   -3.6766   -1.4590 C.3       1 <0>        -0.1253
     32 H1          1.4884    1.6172   -0.7213 H         1 <0>         0.0631
     33 H2         -0.1383    1.6575   -1.4429 H         1 <0>         0.0557
     34 H3          0.0497    1.6222    0.3268 H         1 <0>         0.0567
     35 H4          0.8458   -0.6136   -1.5927 H         1 <0>         0.0856
     36 H5          1.2573   -1.8954    0.4897 H         1 <0>         0.0575
     37 H6          2.3033   -0.4576    0.4073 H         1 <0>         0.0643
     38 H7          0.8647   -0.4526    1.4553 H         1 <0>         0.0593
     39 H8         -1.1579   -0.7108    1.6948 H         1 <0>         0.1946
     40 H9         -3.6035   -1.7557   -3.3581 H         1 <0>         0.4243
     41 H10        -5.7731   -3.3082   -3.8051 H         1 <0>         0.1227
     42 H11        -6.7587   -0.4466   -3.4249 H         1 <0>         0.0807
     43 H12        -5.3369   -0.8973   -4.3964 H         1 <0>         0.0790
     44 H13        -8.1524   -1.9817   -4.8526 H         1 <0>         0.0802
     45 H14        -5.5634   -2.1401   -6.4666 H         1 <0>         0.0761
     46 H15        -6.3559   -3.4881   -5.6139 H         1 <0>         0.0743
     47 H16        -6.8956   -3.4797   -8.0525 H         1 <0>         0.0952
     48 H17        -8.3474   -3.2508   -7.0482 H         1 <0>         0.0508
     49 H18        -8.5394    0.2966   -7.8049 H         1 <0>         0.0952
     50 H19        -9.3154   -1.0271   -6.9024 H         1 <0>         0.0502
     51 H20        -8.0605    0.4280   -5.3572 H         1 <0>         0.0753
     52 H21        -6.5773    0.1892   -6.3139 H         1 <0>         0.0748
     53 H22        -7.6396   -1.0126   -1.4987 H         1 <0>         0.1302
     54 H23        -9.7891   -1.6282   -0.4673 H         1 <0>         0.1433
     55 H24        -9.6494   -5.4103   -2.4336 H         1 <0>         0.1443
     56 H25        -7.5040   -4.7913   -3.4716 H         1 <0>         0.1340
     57 H26       -12.4115   -2.5171   -2.3649 H         1 <0>         0.1608
     58 H27       -13.7463   -4.2905   -3.5934 H         1 <0>         0.1150
     59 H28       -13.2270   -5.5456   -2.3457 H         1 <0>         0.1212
     60 H29       -14.3222   -4.1765   -0.5126 H         1 <0>         0.1096
     61 H30       -14.8416   -2.9214   -1.7603 H         1 <0>         0.1181
@<TRIPOS>BOND
     1    1    2 1
     2    1   32 1
     3    1   33 1
     4    1   34 1
     5    2    3 1
     6    2    4 1
     7    2   35 1
     8    3   36 1
     9    3   37 1
    10    3   38 1
    11    4    8 1
    12    4    5 2
    13    5    6 1
    14    5   39 1
    15    6    7 1
    16    7    8 2
    17    7    9 1
    18    9   10 am
    19    9   40 1
    20   10   11 2
    21   10   12 1
    22   12   13 1
    23   12   20 1
    24   12   41 1
    25   13   14 1
    26   13   42 1
    27   13   43 1
    28   14   19 1
    29   14   15 1
    30   14   44 1
    31   15   16 1
    32   15   45 1
    33   15   46 1
    34   16   17 1
    35   16   47 1
    36   16   48 1
    37   17   18 1
    38   18   19 1
    39   18   49 1
    40   18   50 1
    41   19   51 1
    42   19   52 1
    43   20   25 ar
    44   20   21 ar
    45   21   22 ar
    46   21   53 1
    47   22   23 ar
    48   22   54 1
    49   23   24 ar
    50   23   26 1
    51   24   25 ar
    52   24   55 1
    53   25   56 1
    54   26   27 2
    55   26   28 2
    56   26   29 1
    57   29   31 1
    58   29   30 1
    59   29   57 1
    60   30   31 1
    61   30   58 1
    62   30   59 1
    63   31   60 1
    64   31   61 1
@<TRIPOS>MOLECULE
CHEMBL1164578__1
   61    64     0     0     0
SMALL
USER_CHARGES

@<TRIPOS>ATOM
      1 C1         -0.7917    3.1295   -1.0181 C.3       1 <0>        -0.1411
      2 C2         -0.5345    1.6593   -0.6815 C.3       1 <0>        -0.0231
      3 C3          0.2272    1.5649    0.6420 C.3       1 <0>        -0.1453
      4 C4         -1.8501    0.9350   -0.5568 C.2       1 <0>         0.0958
      5 C5         -2.5519    0.9362    0.6032 C.2       1 <0>        -0.2759
      6 S1         -3.9641   -0.0526    0.1388 S.3       1 <0>         0.2114
      7 C6         -3.5200   -0.3581   -1.4556 C.2       1 <0>         0.2437
      8 N1         -2.3733    0.2756   -1.5738 N.2       1 <0>        -0.5492
      9 N2         -4.2018   -1.0966   -2.4158 N.am      1 <0>        -0.6102
     10 C7         -5.3797   -1.6756   -2.1097 C.2       1 <0>         0.5200
     11 O1         -5.8448   -1.5523   -0.9964 O.2       1 <0>        -0.4856
     12 C8         -6.1188   -2.4762   -3.1507 C.3       1 <0>        -0.0662
     13 C9         -5.2431   -3.6422   -3.6140 C.3       1 <0>        -0.1087
     14 C10        -5.9336   -4.3713   -4.7684 C.3       1 <0>        -0.0899
     15 C11        -5.1220   -5.6136   -5.1483 C.3       1 <0>        -0.1509
     16 C12        -5.7771   -6.2924   -6.3540 C.3       1 <0>         0.0590
     17 O2         -5.8557   -5.3638   -7.4374 O.3       1 <0>        -0.3813
     18 C13        -6.6418   -4.2041   -7.1559 C.3       1 <0>         0.0593
     19 C14        -6.0215   -3.4413   -5.9824 C.3       1 <0>        -0.1553
     20 C15        -7.3967   -3.0122   -2.5584 C.ar      1 <0>        -0.0144
     21 C16        -7.3483   -3.9475   -1.5417 C.ar      1 <0>        -0.1093
     22 C17        -8.5204   -4.4391   -0.9984 C.ar      1 <0>        -0.0209
     23 C18        -9.7411   -3.9950   -1.4714 C.ar      1 <0>        -0.6508
     24 C19        -9.7895   -3.0590   -2.4875 C.ar      1 <0>        -0.0185
     25 C20        -8.6173   -2.5642   -3.0279 C.ar      1 <0>        -0.1278
     26 S2        -11.2352   -4.6225   -0.7797 S.o2      1 <0>         2.5249
     27 O3        -12.2000   -4.4831   -1.8136 O.2       1 <0>        -0.9334
     28 O4        -10.8912   -5.9068   -0.2781 O.2       1 <0>        -0.9321
     29 C21       -11.6219   -3.4994    0.5913 C.3       1 <0>        -0.6700
     30 C22       -12.8483   -2.5971    0.4409 C.3       1 <0>        -0.1253
     31 C23       -12.8863   -3.7855    1.4038 C.3       1 <0>        -0.1252
     32 H1          0.1598    3.6534   -1.1084 H         1 <0>         0.0633
     33 H2         -1.3344    3.1968   -1.9611 H         1 <0>         0.0558
     34 H3         -1.3839    3.5857   -0.2248 H         1 <0>         0.0566
     35 H4          0.0576    1.2031   -1.4748 H         1 <0>         0.0858
     36 H5          0.4104    0.5175    0.8819 H         1 <0>         0.0575
     37 H6          1.1787    2.0888    0.5518 H         1 <0>         0.0644
     38 H7         -0.3650    2.0210    1.4354 H         1 <0>         0.0591
     39 H8         -2.3203    1.4056    1.5479 H         1 <0>         0.1945
     40 H9         -3.8298   -1.1951   -3.3062 H         1 <0>         0.4246
     41 H10        -6.3530   -1.8370   -4.0020 H         1 <0>         0.1225
     42 H11        -4.2787   -3.2612   -3.9500 H         1 <0>         0.0788
     43 H12        -5.0918   -4.3344   -2.7858 H         1 <0>         0.0813
     44 H13        -6.9370   -4.6688   -4.4636 H         1 <0>         0.0806
     45 H14        -4.1042   -5.3194   -5.4045 H         1 <0>         0.0745
     46 H15        -5.1012   -6.3064   -4.3071 H         1 <0>         0.0759
     47 H16        -5.1800   -7.1530   -6.6555 H         1 <0>         0.0956
     48 H17        -6.7805   -6.6224   -6.0847 H         1 <0>         0.0515
     49 H18        -6.6675   -3.5602   -8.0350 H         1 <0>         0.0951
     50 H19        -7.6564   -4.5067   -6.8970 H         1 <0>         0.0514
     51 H20        -6.6438   -2.5806   -5.7376 H         1 <0>         0.0738
     52 H21        -5.0218   -3.1033   -6.2554 H         1 <0>         0.0757
     53 H22        -6.3946   -4.2945   -1.1721 H         1 <0>         0.1308
     54 H23        -8.4826   -5.1704   -0.2045 H         1 <0>         0.1434
     55 H24       -10.7431   -2.7123   -2.8573 H         1 <0>         0.1443
     56 H25        -8.6551   -1.8302   -3.8192 H         1 <0>         0.1339
     57 H26       -10.7616   -3.0951    1.1248 H         1 <0>         0.1618
     58 H27       -12.7951   -1.5988    0.8754 H         1 <0>         0.1153
     59 H28       -13.4228   -2.6784   -0.4818 H         1 <0>         0.1211
     60 H29       -13.4859   -4.6486    1.1145 H         1 <0>         0.1094
     61 H30       -12.8581   -3.5691    2.4717 H         1 <0>         0.1182
@<TRIPOS>BOND
     1    1    2 1
     2    1   32 1
     3    1   33 1
     4    1   34 1
     5    2    3 1
     6    2    4 1
     7    2   35 1
     8    3   36 1
     9    3   37 1
    10    3   38 1
    11    4    8 1
    12    4    5 2
    13    5    6 1
    14    5   39 1
    15    6    7 1
    16    7    8 2
    17    7    9 1
    18    9   10 am
    19    9   40 1
    20   10   11 2
    21   10   12 1
    22   12   13 1
    23   12   20 1
    24   12   41 1
    25   13   14 1
    26   13   42 1
    27   13   43 1
    28   14   19 1
    29   14   15 1
    30   14   44 1
    31   15   16 1
    32   15   45 1
    33   15   46 1
    34   16   17 1
    35   16   47 1
    36   16   48 1
    37   17   18 1
    38   18   19 1
    39   18   49 1
    40   18   50 1
    41   19   51 1
    42   19   52 1
    43   20   25 ar
    44   20   21 ar
    45   21   22 ar
    46   21   53 1
    47   22   23 ar
    48   22   54 1
    49   23   24 ar
    50   23   26 1
    51   24   25 ar
    52   24   55 1
    53   25   56 1
    54   26   27 2
    55   26   28 2
    56   26   29 1
    57   29   31 1
    58   29   30 1
    59   29   57 1
    60   30   31 1
    61   30   58 1
    62   30   59 1
    63   31   60 1
    64   31   61 1
@<TRIPOS>MOLECULE
CHEMBL180172
   47    49     0     0     0
SMALL
USER_CHARGES

@<TRIPOS>ATOM
      1 C1          3.0964   -3.6472    2.7056 C.3       1 <0>        -0.1721
      2 C2          1.9533   -3.5110    1.7330 C.2       1 <0>         0.5113
      3 O1          0.8383   -3.2600    2.1390 O.2       1 <0>        -0.5236
      4 N1          2.1700   -3.6682    0.4121 N.am      1 <0>        -0.6753
      5 C3          1.0933   -3.6445   -0.4812 C.ar      1 <0>         0.1529
      6 C4          0.0162   -2.7978   -0.2498 C.ar      1 <0>        -0.1161
      7 C5         -1.0474   -2.7741   -1.1310 C.ar      1 <0>        -0.0885
      8 C6         -1.0436   -3.5915   -2.2451 C.ar      1 <0>        -0.1139
      9 C7          0.0301   -4.4401   -2.4821 C.ar      1 <0>         0.1785
     10 C8          1.1027   -4.4621   -1.6019 C.ar      1 <0>        -0.1466
     11 N2          0.0327   -5.2681   -3.6102 N.am      1 <0>        -0.5739
     12 C9         -0.0158   -6.7236   -3.4505 C.3       1 <0>         0.1094
     13 C10        -1.4744   -7.1816   -3.3902 C.3       1 <0>        -0.1161
     14 C11        -2.1265   -6.6976   -2.0786 C.3       1 <0>        -0.1141
     15 C12        -3.0603   -7.8625   -1.6661 C.3       1 <0>        -0.1266
     16 C13        -2.2359   -9.1151   -2.0539 C.3       1 <0>        -0.1245
     17 C14        -1.5440   -8.7187   -3.3745 C.3       1 <0>        -0.1197
     18 C15         0.0799   -4.7267   -4.8435 C.2       1 <0>         0.7037
     19 O2          0.2134   -3.5254   -4.9753 O.2       1 <0>        -0.5045
     20 N3         -0.0208   -5.5169   -5.9307 N.am      1 <0>        -0.6266
     21 C16         0.0279   -4.9582   -7.2030 C.2       1 <0>         0.2927
     22 N4          0.1720   -3.6941   -7.5352 N.2       1 <0>        -0.5096
     23 C17         0.1998   -3.3199   -8.8021 C.2       1 <0>         0.0916
     24 C18         0.0734   -4.2961   -9.7352 C.2       1 <0>        -0.1971
     25 S1         -0.0760   -5.7369   -8.6914 S.3       1 <0>         0.1677
     26 Cl1         0.0644   -4.1779  -11.4672 Cl        1 <0>         0.0322
     27 H1          3.1776   -4.6853    3.0278 H         1 <0>         0.0987
     28 H2          4.0242   -3.3437    2.2206 H         1 <0>         0.0834
     29 H3          2.9142   -3.0111    3.5717 H         1 <0>         0.0987
     30 H4          3.0724   -3.7979    0.0807 H         1 <0>         0.4124
     31 H5          0.0103   -2.1578    0.6201 H         1 <0>         0.1412
     32 H6         -1.8837   -2.1157   -0.9485 H         1 <0>         0.1320
     33 H7         -1.8766   -3.5706   -2.9322 H         1 <0>         0.1231
     34 H8          1.9409   -5.1176   -1.7865 H         1 <0>         0.1273
     35 H9          0.4794   -7.1987   -4.2973 H         1 <0>         0.0779
     36 H10         0.4918   -7.0051   -2.5280 H         1 <0>         0.0942
     37 H11        -2.0237   -6.7918   -4.2472 H         1 <0>         0.0752
     38 H12        -1.3673   -6.5285   -1.3149 H         1 <0>         0.0684
     39 H13        -2.7035   -5.7892   -2.2520 H         1 <0>         0.0661
     40 H14        -3.2516   -7.8428   -0.5932 H         1 <0>         0.0671
     41 H15        -3.9943   -7.8259   -2.2269 H         1 <0>         0.0664
     42 H16        -1.4944   -9.3364   -1.2862 H         1 <0>         0.0659
     43 H17        -2.8927   -9.9710   -2.2093 H         1 <0>         0.0664
     44 H18        -2.1277   -9.0748   -4.2234 H         1 <0>         0.0690
     45 H19        -0.5386   -9.1384   -3.4099 H         1 <0>         0.0677
     46 H20        -0.1273   -6.4752   -5.8255 H         1 <0>         0.4232
     47 H21         0.3176   -2.2835   -9.0820 H         1 <0>         0.1846
@<TRIPOS>BOND
     1    1    2 1
     2    1   27 1
     3    1   28 1
     4    1   29 1
     5    2    3 2
     6    2    4 am
     7    4    5 1
     8    4   30 1
     9    5   10 ar
    10    5    6 ar
    11    6    7 ar
    12    6   31 1
    13    7    8 ar
    14    7   32 1
    15    8    9 ar
    16    8   33 1
    17    9   10 ar
    18    9   11 1
    19   10   34 1
    20   11   12 1
    21   11   18 am
    22   12   13 1
    23   12   35 1
    24   12   36 1
    25   13   17 1
    26   13   14 1
    27   13   37 1
    28   14   15 1
    29   14   38 1
    30   14   39 1
    31   15   16 1
    32   15   40 1
    33   15   41 1
    34   16   17 1
    35   16   42 1
    36   16   43 1
    37   17   44 1
    38   17   45 1
    39   18   19 2
    40   18   20 am
    41   20   21 1
    42   20   46 1
    43   21   25 1
    44   21   22 2
    45   22   23 1
    46   23   24 2
    47   23   47 1
    48   24   25 1
    49   24   26 1
@<TRIPOS>MOLECULE
CHEMBL483817
   53    56     0     0     0
SMALL
USER_CHARGES

@<TRIPOS>ATOM
      1 C1          2.3280    1.7600    0.6472 C.3       1 <0>        -0.0801
      2 C2          1.9923    0.2971    0.5117 C.2       1 <0>         0.0852
      3 C3          1.9695   -0.3151   -0.6978 C.2       1 <0>        -0.2779
      4 S1          1.5237   -1.9770   -0.2212 S.3       1 <0>         0.2208
      5 C4          1.4152   -1.7219    1.4388 C.2       1 <0>         0.2417
      6 N1          1.7127   -0.4466    1.5660 N.2       1 <0>        -0.5495
      7 N2          1.0951   -2.6369    2.4335 N.am      1 <0>        -0.6061
      8 C5          0.8229   -3.9166    2.1098 C.2       1 <0>         0.5653
      9 O1          0.8576   -4.2700    0.9472 O.2       1 <0>        -0.4843
     10 C6          0.4822   -4.8904    3.1685 C.ar      1 <0>        -0.1025
     11 C7          0.4362   -4.4854    4.5032 C.ar      1 <0>        -0.0946
     12 C8          0.1161   -5.4009    5.4920 C.ar      1 <0>         0.1037
     13 C9         -0.1583   -6.7194    5.1571 C.ar      1 <0>        -0.0939
     14 C10        -0.1136   -7.1262    3.8315 C.ar      1 <0>         0.0959
     15 C11         0.2001   -6.2155    2.8355 C.ar      1 <0>        -0.0636
     16 O2         -0.3831   -8.4185    3.5089 O.3       1 <0>        -0.2454
     17 C12         0.6635   -9.2350    3.2181 C.ar      1 <0>         0.0980
     18 C13         1.9649   -8.7767    3.3672 C.ar      1 <0>        -0.1391
     19 C14         3.0269   -9.6087    3.0710 C.ar      1 <0>        -0.0975
     20 C15         2.7942  -10.8972    2.6261 C.ar      1 <0>        -0.0510
     21 C16         1.4987  -11.3561    2.4763 C.ar      1 <0>        -0.6243
     22 C17         0.4329  -10.5300    2.7771 C.ar      1 <0>        -0.0447
     23 S2          1.2067  -12.9982    1.9081 S.o2      1 <0>         2.5009
     24 O3         -0.0752  -12.9478    1.2968 O.2       1 <0>        -0.9317
     25 O4          2.3599  -13.3288    1.1466 O.2       1 <0>        -0.9318
     26 C18         1.1416  -14.0078    3.4138 C.3       1 <0>        -0.6491
     27 O5          0.0710   -5.0076    6.7920 O.3       1 <0>        -0.2514
     28 C19        -1.0269   -4.3278    7.2151 C.ar      1 <0>         0.1123
     29 C20        -2.0638   -4.0634    6.3318 C.ar      1 <0>        -0.1958
     30 C21        -3.1787   -3.3721    6.7645 C.ar      1 <0>        -0.0800
     31 C22        -3.2618   -2.9433    8.0764 C.ar      1 <0>        -0.1463
     32 C23        -2.2297   -3.2051    8.9586 C.ar      1 <0>        -0.0809
     33 C24        -1.1155   -3.9018    8.5327 C.ar      1 <0>        -0.1395
     34 H1          3.4041    1.8753    0.7767 H         1 <0>         0.0757
     35 H2          2.0113    2.2901   -0.2510 H         1 <0>         0.0772
     36 H3          1.8114    2.1726    1.5137 H         1 <0>         0.0740
     37 H4          2.1663    0.0908   -1.6791 H         1 <0>         0.1969
     38 H5          1.0674   -2.3549    3.3612 H         1 <0>         0.4238
     39 H6          0.6503   -3.4596    4.7647 H         1 <0>         0.1445
     40 H7         -0.4068   -7.4310    5.9306 H         1 <0>         0.1539
     41 H8          0.2306   -6.5320    1.8034 H         1 <0>         0.1584
     42 H9          2.1471   -7.7704    3.7143 H         1 <0>         0.1353
     43 H10         4.0398   -9.2524    3.1865 H         1 <0>         0.1405
     44 H11         3.6260  -11.5462    2.3950 H         1 <0>         0.1484
     45 H12        -0.5789  -10.8906    2.6649 H         1 <0>         0.1550
     46 H13         0.3341  -13.6532    4.0544 H         1 <0>         0.1330
     47 H14         0.9621  -15.0489    3.1456 H         1 <0>         0.1357
     48 H15         2.0894  -13.9279    3.9461 H         1 <0>         0.1328
     49 H16        -1.9990   -4.3974    5.3068 H         1 <0>         0.1266
     50 H17        -3.9860   -3.1660    6.0774 H         1 <0>         0.1284
     51 H18        -4.1342   -2.4026    8.4126 H         1 <0>         0.1281
     52 H19        -2.2969   -2.8688    9.9827 H         1 <0>         0.1343
     53 H20        -0.3118   -4.1102    9.2233 H         1 <0>         0.1349
@<TRIPOS>BOND
     1    1    2 1
     2    1   34 1
     3    1   35 1
     4    1   36 1
     5    2    6 1
     6    2    3 2
     7    3    4 1
     8    3   37 1
     9    4    5 1
    10    5    6 2
    11    5    7 1
    12    7    8 am
    13    7   38 1
    14    8    9 2
    15    8   10 1
    16   10   15 ar
    17   10   11 ar
    18   11   12 ar
    19   11   39 1
    20   12   13 ar
    21   12   27 1
    22   13   14 ar
    23   13   40 1
    24   14   15 ar
    25   14   16 1
    26   15   41 1
    27   16   17 1
    28   17   22 ar
    29   17   18 ar
    30   18   19 ar
    31   18   42 1
    32   19   20 ar
    33   19   43 1
    34   20   21 ar
    35   20   44 1
    36   21   22 ar
    37   21   23 1
    38   22   45 1
    39   23   24 2
    40   23   25 2
    41   23   26 1
    42   26   46 1
    43   26   47 1
    44   26   48 1
    45   27   28 1
    46   28   33 ar
    47   28   29 ar
    48   29   30 ar
    49   29   49 1
    50   30   31 ar
    51   30   50 1
    52   31   32 ar
    53   31   51 1
    54   32   33 ar
    55   32   52 1
    56   33   53 1
@<TRIPOS>MOLECULE
CHEMBL483818
   53    56     0     0     0
SMALL
USER_CHARGES

@<TRIPOS>ATOM
      1 C1          2.3279    1.7600    0.6473 C.3       1 <0>        -0.0801
      2 C2          1.9922    0.2972    0.5118 C.2       1 <0>         0.0852
      3 C3          1.9693   -0.3150   -0.6977 C.2       1 <0>        -0.2777
      4 S1          1.5235   -1.9769   -0.2212 S.3       1 <0>         0.2212
      5 C4          1.4151   -1.7219    1.4388 C.2       1 <0>         0.2414
      6 N1          1.7127   -0.4466    1.5660 N.2       1 <0>        -0.5493
      7 N2          1.0950   -2.6369    2.4335 N.am      1 <0>        -0.6059
      8 C5          0.8228   -3.9165    2.1098 C.2       1 <0>         0.5653
      9 O1          0.8575   -4.2699    0.9472 O.2       1 <0>        -0.4840
     10 C6          0.4822   -4.8904    3.1684 C.ar      1 <0>        -0.1021
     11 C7          0.4362   -4.4854    4.5032 C.ar      1 <0>        -0.0930
     12 C8          0.1161   -5.4010    5.4920 C.ar      1 <0>         0.1040
     13 C9         -0.1582   -6.7195    5.1570 C.ar      1 <0>        -0.0922
     14 C10        -0.1136   -7.1262    3.8314 C.ar      1 <0>         0.0923
     15 C11         0.2001   -6.2155    2.8355 C.ar      1 <0>        -0.0612
     16 O2         -0.3831   -8.4185    3.5087 O.3       1 <0>        -0.2433
     17 C12         0.6635   -9.2350    3.2180 C.ar      1 <0>         0.1712
     18 C13         1.9647   -8.7768    3.3670 C.ar      1 <0>        -0.2144
     19 C14         3.0268   -9.6088    3.0707 C.ar      1 <0>         0.0176
     20 C15         2.7942  -10.8971    2.6254 C.ar      1 <0>        -0.6908
     21 C16         1.4985  -11.3560    2.4756 C.ar      1 <0>         0.0150
     22 C17         0.4328  -10.5302    2.7769 C.ar      1 <0>        -0.1590
     23 S2          4.1512  -11.9556    2.2478 S.o2      1 <0>         2.5032
     24 O3          3.6387  -12.8760    1.2941 O.2       1 <0>        -0.9360
     25 O4          5.2136  -11.0755    1.9069 O.2       1 <0>        -0.9367
     26 C18         4.5229  -12.8103    3.8040 C.3       1 <0>        -0.6508
     27 O5          0.0711   -5.0077    6.7920 O.3       1 <0>        -0.2510
     28 C19        -1.0268   -4.3279    7.2152 C.ar      1 <0>         0.1122
     29 C20        -2.0637   -4.0635    6.3319 C.ar      1 <0>        -0.1959
     30 C21        -3.1786   -3.3722    6.7646 C.ar      1 <0>        -0.0801
     31 C22        -3.2617   -2.9434    8.0765 C.ar      1 <0>        -0.1462
     32 C23        -2.2296   -3.2052    8.9586 C.ar      1 <0>        -0.0807
     33 C24        -1.1154   -3.9019    8.5327 C.ar      1 <0>        -0.1393
     34 H1          3.4040    1.8754    0.7768 H         1 <0>         0.0758
     35 H2          2.0112    2.2902   -0.2509 H         1 <0>         0.0772
     36 H3          1.8113    2.1726    1.5139 H         1 <0>         0.0740
     37 H4          2.1661    0.0909   -1.6790 H         1 <0>         0.1969
     38 H5          1.0674   -2.3549    3.3612 H         1 <0>         0.4238
     39 H6          0.6503   -3.4597    4.7647 H         1 <0>         0.1451
     40 H7         -0.4068   -7.4310    5.9305 H         1 <0>         0.1542
     41 H8          0.2305   -6.5320    1.8033 H         1 <0>         0.1586
     42 H9          2.1469   -7.7705    3.7141 H         1 <0>         0.1374
     43 H10         4.0398   -9.2527    3.1865 H         1 <0>         0.1482
     44 H11         1.3195  -12.3625    2.1273 H         1 <0>         0.1538
     45 H12        -0.5790  -10.8907    2.6643 H         1 <0>         0.1468
     46 H13         3.6482  -13.3754    4.1260 H         1 <0>         0.1320
     47 H14         5.3603  -13.4916    3.6534 H         1 <0>         0.1339
     48 H15         4.7835  -12.0776    4.5678 H         1 <0>         0.1312
     49 H16        -1.9990   -4.3975    5.3069 H         1 <0>         0.1264
     50 H17        -3.9860   -3.1661    6.0775 H         1 <0>         0.1283
     51 H18        -4.1341   -2.4028    8.4128 H         1 <0>         0.1281
     52 H19        -2.2968   -2.8690    9.9828 H         1 <0>         0.1344
     53 H20        -0.3116   -4.1104    9.2234 H         1 <0>         0.1351
@<TRIPOS>BOND
     1    1    2 1
     2    1   34 1
     3    1   35 1
     4    1   36 1
     5    2    6 1
     6    2    3 2
     7    3    4 1
     8    3   37 1
     9    4    5 1
    10    5    6 2
    11    5    7 1
    12    7    8 am
    13    7   38 1
    14    8    9 2
    15    8   10 1
    16   10   15 ar
    17   10   11 ar
    18   11   12 ar
    19   11   39 1
    20   12   13 ar
    21   12   27 1
    22   13   14 ar
    23   13   40 1
    24   14   15 ar
    25   14   16 1
    26   15   41 1
    27   16   17 1
    28   17   22 ar
    29   17   18 ar
    30   18   19 ar
    31   18   42 1
    32   19   20 ar
    33   19   43 1
    34   20   21 ar
    35   20   23 1
    36   21   22 ar
    37   21   44 1
    38   22   45 1
    39   23   24 2
    40   23   25 2
    41   23   26 1
    42   26   46 1
    43   26   47 1
    44   26   48 1
    45   27   28 1
    46   28   33 ar
    47   28   29 ar
    48   29   30 ar
    49   29   49 1
    50   30   31 ar
    51   30   50 1
    52   31   32 ar
    53   31   51 1
    54   32   33 ar
    55   32   52 1
    56   33   53 1
@<TRIPOS>MOLECULE
CHEMBL195128
   51    53     0     0     0
SMALL
USER_CHARGES

@<TRIPOS>ATOM
      1 C1         -1.9614   -2.2202    1.5612 C.3       1 <0>        -0.1801
      2 C2         -2.1312   -0.7508    1.1699 C.3       1 <0>         0.0714
      3 C3         -1.6678    0.1410    2.3235 C.3       1 <0>        -0.1470
      4 O1         -1.3464   -0.4734    0.0084 O.3       1 <0>        -0.3072
      5 C4         -1.8955   -0.7828   -1.1957 C.ar      1 <0>         0.1685
      6 C5         -3.1949   -1.2583   -1.2616 C.ar      1 <0>        -0.1887
      7 C6         -3.7578   -1.5751   -2.4982 C.ar      1 <0>        -0.0468
      8 C7         -3.0083   -1.4114   -3.6640 C.ar      1 <0>        -0.1592
      9 C8         -1.7099   -0.9355   -3.5889 C.ar      1 <0>         0.1643
     10 C9         -1.1559   -0.6166   -2.3574 C.ar      1 <0>        -0.2247
     11 O2         -0.9791   -0.7757   -4.7236 O.3       1 <0>        -0.3013
     12 C10         0.3529   -0.2807   -4.5730 C.3       1 <0>         0.0995
     13 C11         1.0038   -0.1700   -5.9277 C.ar      1 <0>        -0.0974
     14 C12         1.7028   -1.2429   -6.4485 C.ar      1 <0>        -0.0943
     15 C13         2.2998   -1.1413   -7.6911 C.ar      1 <0>        -0.1236
     16 C14         2.1975    0.0330   -8.4131 C.ar      1 <0>        -0.1095
     17 C15         1.4978    1.1056   -7.8928 C.ar      1 <0>        -0.1235
     18 C16         0.8971    1.0026   -6.6520 C.ar      1 <0>        -0.0942
     19 C17        -5.1439   -2.0832   -2.5734 C.2       1 <0>         0.5452
     20 O3         -5.7949   -2.2255   -1.5570 O.2       1 <0>        -0.4589
     21 N1         -5.6857   -2.3888   -3.7690 N.am      1 <0>        -0.6516
     22 C18        -7.0201   -2.7607   -3.8514 C.ar      1 <0>         0.3352
     23 C19        -7.5990   -2.9680   -5.1018 C.ar      1 <0>        -0.2164
     24 C20        -8.9152   -3.3353   -5.1802 C.ar      1 <0>        -0.0207
     25 C21        -9.6392   -3.4908   -3.9867 C.ar      1 <0>        -0.2054
     26 C22        -8.9932   -3.2661   -2.7682 C.ar      1 <0>         0.1542
     27 N2         -7.7240   -2.9190   -2.7391 N.ar      1 <0>        -0.4861
     28 C23       -11.0577   -3.8841   -4.0191 C.2       1 <0>         0.5269
     29 O4        -11.6143   -4.0781   -5.0911 O.co2     1 <0>        -0.6872
     30 O5        -11.6796   -4.0170   -2.9741 O.co2     1 <0>        -0.6839
     31 H1         -2.5601   -2.4318    2.4471 H         1 <0>         0.0753
     32 H2         -2.2916   -2.8555    0.7393 H         1 <0>         0.0647
     33 H3         -0.9116   -2.4200    1.7758 H         1 <0>         0.0661
     34 H4         -3.1810   -0.5510    0.9552 H         1 <0>         0.0810
     35 H5         -0.6180   -0.0589    2.5382 H         1 <0>         0.0661
     36 H6         -1.7888    1.1878    2.0448 H         1 <0>         0.0651
     37 H7         -2.2665   -0.0706    3.2095 H         1 <0>         0.0793
     38 H8         -3.7713   -1.3838   -0.3569 H         1 <0>         0.1478
     39 H9         -3.4400   -1.6558   -4.6233 H         1 <0>         0.1365
     40 H10        -0.1445   -0.2418   -2.3028 H         1 <0>         0.1396
     41 H11         0.3243    0.7020   -4.1023 H         1 <0>         0.0745
     42 H12         0.9268   -0.9659   -3.9491 H         1 <0>         0.0745
     43 H13         1.7827   -2.1604   -5.8843 H         1 <0>         0.1250
     44 H14         2.8465   -1.9793   -8.0976 H         1 <0>         0.1253
     45 H15         2.6646    0.1126   -9.3837 H         1 <0>         0.1239
     46 H16         1.4181    2.0232   -8.4568 H         1 <0>         0.1254
     47 H17         0.3473    1.8393   -6.2471 H         1 <0>         0.1251
     48 H18        -5.1429   -2.3486   -4.5720 H         1 <0>         0.4134
     49 H19        -7.0146   -2.8398   -6.0009 H         1 <0>         0.1275
     50 H20        -9.3863   -3.5014   -6.1378 H         1 <0>         0.1408
     51 H21        -9.5386   -3.3819   -1.8431 H         1 <0>         0.1657
@<TRIPOS>BOND
     1    1    2 1
     2    1   31 1
     3    1   32 1
     4    1   33 1
     5    2    3 1
     6    2    4 1
     7    2   34 1
     8    3   35 1
     9    3   36 1
    10    3   37 1
    11    4    5 1
    12    5   10 ar
    13    5    6 ar
    14    6    7 ar
    15    6   38 1
    16    7    8 ar
    17    7   19 1
    18    8    9 ar
    19    8   39 1
    20    9   10 ar
    21    9   11 1
    22   10   40 1
    23   11   12 1
    24   12   13 1
    25   12   41 1
    26   12   42 1
    27   13   18 ar
    28   13   14 ar
    29   14   15 ar
    30   14   43 1
    31   15   16 ar
    32   15   44 1
    33   16   17 ar
    34   16   45 1
    35   17   18 ar
    36   17   46 1
    37   18   47 1
    38   19   20 2
    39   19   21 am
    40   21   22 1
    41   21   48 1
    42   22   27 ar
    43   22   23 ar
    44   23   24 ar
    45   23   49 1
    46   24   25 ar
    47   24   50 1
    48   25   26 ar
    49   25   28 1
    50   26   27 ar
    51   26   51 1
    52   28   29 2
    53   28   30 1
@<TRIPOS>MOLECULE
CHEMBL552455
   51    54     0     0     0
SMALL
USER_CHARGES

@<TRIPOS>ATOM
      1 C1         -0.4853   -6.3935   -7.6725 C.3       1 <0>        -0.6509
      2 S1         -0.3436   -6.2606   -5.8689 S.o2      1 <0>         2.5027
      3 O1         -1.6144   -5.9817   -5.2974 O.2       1 <0>        -0.9361
      4 O2          0.4628   -7.3153   -5.3623 O.2       1 <0>        -0.9371
      5 C2          0.6028   -4.7998   -5.5955 C.ar      1 <0>        -0.6916
      6 C3          1.9817   -4.8738   -5.5256 C.ar      1 <0>         0.0169
      7 C4          2.7261   -3.7300   -5.3117 C.ar      1 <0>        -0.2177
      8 C5          2.0888   -2.5059   -5.1670 C.ar      1 <0>         0.1735
      9 C6          0.7049   -2.4344   -5.2376 C.ar      1 <0>        -0.1600
     10 C7         -0.0345   -3.5805   -5.4568 C.ar      1 <0>         0.0151
     11 O3          2.8187   -1.3793   -4.9561 O.3       1 <0>        -0.2445
     12 C8          4.1633   -1.5086   -4.8081 C.ar      1 <0>         0.1174
     13 C9          4.9662   -1.7032   -5.9204 C.ar      1 <0>        -0.1385
     14 C10         6.3465   -1.8354   -5.7672 C.ar      1 <0>        -0.0745
     15 C11         6.9126   -1.7710   -4.4932 C.ar      1 <0>        -0.1443
     16 C12         6.1027   -1.5763   -3.3868 C.ar      1 <0>         0.1465
     17 C13         4.7309   -1.4400   -3.5440 C.ar      1 <0>        -0.1214
     18 O4          6.6530   -1.5139   -2.1457 O.3       1 <0>        -0.2903
     19 C14         8.0778   -1.5864   -2.0633 C.3       1 <0>         0.0454
     20 C15         8.5194   -1.9533   -0.6256 C.3       1 <0>        -0.1486
     21 C16         9.7519   -1.0361   -0.4206 C.3       1 <0>         0.0458
     22 O5          9.3814    0.1829   -1.0999 O.3       1 <0>        -0.3672
     23 C17         8.7035   -0.1996   -2.3084 C.3       1 <0>         0.0237
     24 C18         7.2071   -2.0435   -6.9510 C.2       1 <0>         0.5578
     25 O6          8.4096   -2.1585   -6.8155 O.2       1 <0>        -0.4553
     26 N1          6.6584   -2.1059   -8.1804 N.am      1 <0>        -0.6178
     27 C19         7.4669   -2.3015   -9.2927 C.2       1 <0>         0.2666
     28 N2          8.7733   -2.4511   -9.3376 N.2       1 <0>        -0.5195
     29 C20         9.4004   -2.6299  -10.4855 C.2       1 <0>         0.0619
     30 C21         8.6388   -2.6516  -11.6069 C.2       1 <0>        -0.2389
     31 S2          7.0127   -2.4120  -10.9095 S.3       1 <0>         0.1152
     32 H1         -0.9875   -5.5087   -8.0637 H         1 <0>         0.1321
     33 H2          0.5099   -6.4699   -8.1105 H         1 <0>         0.1310
     34 H3         -1.0635   -7.2818   -7.9271 H         1 <0>         0.1338
     35 H4          2.4773   -5.8268   -5.6379 H         1 <0>         0.1474
     36 H5          3.8031   -3.7884   -5.2568 H         1 <0>         0.1393
     37 H6          0.2064   -1.4830   -5.1250 H         1 <0>         0.1467
     38 H7         -1.1114   -3.5247   -5.5163 H         1 <0>         0.1534
     39 H8          4.5240   -1.7528   -6.9045 H         1 <0>         0.1385
     40 H9          7.9807   -1.8732   -4.3702 H         1 <0>         0.1528
     41 H10         4.1027   -1.2842   -2.6794 H         1 <0>         0.1525
     42 H11         8.4640   -2.3112   -2.7799 H         1 <0>         0.0961
     43 H12         7.7354   -1.7180    0.0941 H         1 <0>         0.0971
     44 H13         8.8017   -3.0042   -0.5616 H         1 <0>         0.0959
     45 H14         9.9188   -0.8488    0.6402 H         1 <0>         0.1042
     46 H15        10.6382   -1.4761   -0.8777 H         1 <0>         0.0687
     47 H16         9.4159   -0.2547   -3.1315 H         1 <0>         0.0749
     48 H17         7.9219    0.5240   -2.5398 H         1 <0>         0.0956
     49 H18         5.6988   -2.0141   -8.2885 H         1 <0>         0.4255
     50 H19        10.4724   -2.7530  -10.5293 H         1 <0>         0.1784
     51 H20         8.9338   -2.7823  -12.6375 H         1 <0>         0.2016
@<TRIPOS>BOND
     1    1    2 1
     2    1   32 1
     3    1   33 1
     4    1   34 1
     5    2    3 2
     6    2    4 2
     7    2    5 1
     8    5   10 ar
     9    5    6 ar
    10    6    7 ar
    11    6   35 1
    12    7    8 ar
    13    7   36 1
    14    8    9 ar
    15    8   11 1
    16    9   10 ar
    17    9   37 1
    18   10   38 1
    19   11   12 1
    20   12   17 ar
    21   12   13 ar
    22   13   14 ar
    23   13   39 1
    24   14   15 ar
    25   14   24 1
    26   15   16 ar
    27   15   40 1
    28   16   17 ar
    29   16   18 1
    30   17   41 1
    31   18   19 1
    32   19   23 1
    33   19   20 1
    34   19   42 1
    35   20   21 1
    36   20   43 1
    37   20   44 1
    38   21   22 1
    39   21   45 1
    40   21   46 1
    41   22   23 1
    42   23   47 1
    43   23   48 1
    44   24   25 2
    45   24   26 am
    46   26   27 1
    47   26   49 1
    48   27   31 1
    49   27   28 2
    50   28   29 1
    51   29   30 2
    52   29   50 1
    53   30   31 1
    54   30   51 1
@<TRIPOS>MOLECULE
CHEMBL552455__1
   51    54     0     0     0
SMALL
USER_CHARGES

@<TRIPOS>ATOM
      1 C1         -0.7266   -6.4839   -7.3389 C.3       1 <0>        -0.6509
      2 S1         -0.5667   -6.2415   -5.5483 S.o2      1 <0>         2.5026
      3 O1         -1.8193   -5.8675   -4.9913 O.2       1 <0>        -0.9361
      4 O2          0.1936   -7.2976   -4.9774 O.2       1 <0>        -0.9367
      5 C2          0.4480   -4.8117   -5.3737 C.ar      1 <0>        -0.6914
      6 C3          1.8225   -4.9451   -5.3043 C.ar      1 <0>         0.0171
      7 C4          2.6203   -3.8257   -5.1679 C.ar      1 <0>        -0.2181
      8 C5          2.0412   -2.5666   -5.1005 C.ar      1 <0>         0.1731
      9 C6          0.6616   -2.4355   -5.1703 C.ar      1 <0>        -0.1598
     10 C7         -0.1313   -3.5577   -5.3120 C.ar      1 <0>         0.0151
     11 O3          2.8238   -1.4639   -4.9658 O.3       1 <0>        -0.2445
     12 C8          4.1604   -1.6463   -4.8021 C.ar      1 <0>         0.1177
     13 C9          4.9496   -1.9910   -5.8874 C.ar      1 <0>        -0.1390
     14 C10         6.3218   -2.1775   -5.7182 C.ar      1 <0>        -0.0742
     15 C11         6.8935   -2.0158   -4.4553 C.ar      1 <0>        -0.1438
     16 C12         6.0973   -1.6711   -3.3759 C.ar      1 <0>         0.1460
     17 C13         4.7338   -1.4814   -3.5495 C.ar      1 <0>        -0.1203
     18 O4          6.6530   -1.5139   -2.1457 O.3       1 <0>        -0.2875
     19 C14         8.0778   -1.5864   -2.0633 C.3       1 <0>         0.0436
     20 C15         8.6061   -0.7430   -0.8710 C.3       1 <0>        -0.1518
     21 C16         9.9159   -1.4991   -0.5336 C.3       1 <0>         0.0504
     22 O5          9.6152   -2.8865   -0.7528 O.3       1 <0>        -0.3723
     23 C17         8.5344   -3.0116   -1.6843 C.3       1 <0>         0.0314
     24 C18         7.1677   -2.5459   -6.8731 C.2       1 <0>         0.5573
     25 O6          8.3632   -2.7080   -6.7237 O.2       1 <0>        -0.4547
     26 N1          6.6136   -2.7020   -8.0917 N.am      1 <0>        -0.6178
     27 C19         7.4085   -3.0481   -9.1769 C.2       1 <0>         0.2665
     28 N2          8.7054   -3.2678   -9.2033 N.2       1 <0>        -0.5193
     29 C20         9.3198   -3.5915  -10.3260 C.2       1 <0>         0.0620
     30 C21         8.5553   -3.6857  -11.4417 C.2       1 <0>        -0.2388
     31 S2          6.9453   -3.2953  -10.7759 S.3       1 <0>         0.1152
     32 H1         -1.1900   -5.6038   -7.7847 H         1 <0>         0.1321
     33 H2          0.2610   -6.6347   -7.7748 H         1 <0>         0.1311
     34 H3         -1.3469   -7.3588   -7.5332 H         1 <0>         0.1339
     35 H4          2.2727   -5.9254   -5.3565 H         1 <0>         0.1477
     36 H5          3.6938   -3.9305   -5.1134 H         1 <0>         0.1396
     37 H6          0.2084   -1.4566   -5.1177 H         1 <0>         0.1466
     38 H7         -1.2049   -3.4558   -5.3709 H         1 <0>         0.1534
     39 H8          4.5032   -2.1155   -6.8629 H         1 <0>         0.1388
     40 H9          7.9553   -2.1596   -4.3200 H         1 <0>         0.1534
     41 H10         4.1164   -1.2086   -2.7064 H         1 <0>         0.1529
     42 H11         8.5355   -1.2687   -3.0002 H         1 <0>         0.0997
     43 H12         8.8122    0.2828   -1.1763 H         1 <0>         0.0965
     44 H13         7.9103   -0.7692   -0.0324 H         1 <0>         0.0965
     45 H14        10.7199   -1.1770   -1.1954 H         1 <0>         0.0690
     46 H15        10.1919   -1.3316    0.5075 H         1 <0>         0.0971
     47 H16         7.7091   -3.5537   -1.2225 H         1 <0>         0.0855
     48 H17         8.8733   -3.5405   -2.5751 H         1 <0>         0.0796
     49 H18         5.6597   -2.5726   -8.2109 H         1 <0>         0.4254
     50 H19        10.3841   -3.7728  -10.3545 H         1 <0>         0.1785
     51 H20         8.8408   -3.9330  -12.4535 H         1 <0>         0.2017
@<TRIPOS>BOND
     1    1    2 1
     2    1   32 1
     3    1   33 1
     4    1   34 1
     5    2    3 2
     6    2    4 2
     7    2    5 1
     8    5   10 ar
     9    5    6 ar
    10    6    7 ar
    11    6   35 1
    12    7    8 ar
    13    7   36 1
    14    8    9 ar
    15    8   11 1
    16    9   10 ar
    17    9   37 1
    18   10   38 1
    19   11   12 1
    20   12   17 ar
    21   12   13 ar
    22   13   14 ar
    23   13   39 1
    24   14   15 ar
    25   14   24 1
    26   15   16 ar
    27   15   40 1
    28   16   17 ar
    29   16   18 1
    30   17   41 1
    31   18   19 1
    32   19   23 1
    33   19   20 1
    34   19   42 1
    35   20   21 1
    36   20   43 1
    37   20   44 1
    38   21   22 1
    39   21   45 1
    40   21   46 1
    41   22   23 1
    42   23   47 1
    43   23   48 1
    44   24   25 2
    45   24   26 am
    46   26   27 1
    47   26   49 1
    48   27   31 1
    49   27   28 2
    50   28   29 1
    51   29   30 2
    52   29   50 1
    53   30   31 1
    54   30   51 1
@<TRIPOS>MOLECULE
CHEMBL564282
   54    57     0     0     0
SMALL
USER_CHARGES

@<TRIPOS>ATOM
      1 C1         -0.1896   -7.2465   -7.0416 C.3       1 <0>        -0.6510
      2 S1         -0.0699   -6.9003   -5.2650 S.o2      1 <0>         2.5028
      3 O1         -1.3591   -6.6334   -4.7304 O.2       1 <0>        -0.9366
      4 O2          0.7930   -7.8407   -4.6402 O.2       1 <0>        -0.9372
      5 C2          0.7873   -5.3645   -5.1597 C.ar      1 <0>        -0.6923
      6 C3          2.1677   -5.3485   -5.0804 C.ar      1 <0>         0.0171
      7 C4          2.8421   -4.1458   -4.9983 C.ar      1 <0>        -0.2172
      8 C5          2.1332   -2.9530   -4.9953 C.ar      1 <0>         0.1742
      9 C6          0.7481   -2.9718   -5.0749 C.ar      1 <0>        -0.1617
     10 C7          0.0788   -4.1771   -5.1622 C.ar      1 <0>         0.0151
     11 O3          2.7943   -1.7686   -4.9141 O.3       1 <0>        -0.2472
     12 C8          4.1458   -1.8005   -4.7761 C.ar      1 <0>         0.1170
     13 C9          4.9504   -1.9927   -5.8875 C.ar      1 <0>        -0.1387
     14 C10         6.3377   -2.0248   -5.7446 C.ar      1 <0>        -0.0771
     15 C11         6.9091   -1.8629   -4.4817 C.ar      1 <0>        -0.0815
     16 C12         6.0975   -1.6712   -3.3760 C.ar      1 <0>         0.1532
     17 C13         4.7183   -1.6347   -3.5232 C.ar      1 <0>        -0.1843
     18 O4          6.6530   -1.5139   -2.1457 O.3       1 <0>        -0.2930
     19 C14         5.7572   -1.3171   -1.0498 C.3       1 <0>         0.0799
     20 H1          4.8964   -0.7265   -1.3632 H         1 <0>         0.0951
     21 C15         5.2988   -2.6796   -0.4730 C.3       1 <0>        -0.1470
     22 C16         4.8876   -2.3166    0.9755 C.3       1 <0>        -0.1207
     23 C17         5.9320   -1.2695    1.4141 C.3       1 <0>        -0.1547
     24 C18         6.4840   -0.6308    0.1251 C.3       1 <0>         0.1051
     25 H2          7.5576   -0.8048    0.0529 H         1 <0>         0.0768
     26 O5          6.2133    0.7723    0.1157 O.3       1 <0>        -0.5636
     27 C19         7.2001   -2.2301   -6.9275 C.2       1 <0>         0.5590
     28 O6          8.4088   -2.2578   -6.8011 O.2       1 <0>        -0.4520
     29 N1          6.6463   -2.3867   -8.1462 N.am      1 <0>        -0.6184
     30 C20         7.4567   -2.5797   -9.2577 C.2       1 <0>         0.2687
     31 N2          8.7697   -2.6434   -9.3110 N.2       1 <0>        -0.5197
     32 C21         9.3975   -2.8334  -10.4567 C.2       1 <0>         0.0628
     33 C22         8.6295   -2.9588  -11.5668 C.2       1 <0>        -0.2401
     34 S2          6.9970   -2.7961  -10.8622 S.3       1 <0>         0.1128
     35 H3         -0.7396   -6.4433   -7.5320 H         1 <0>         0.1320
     36 H4          0.8117   -7.3136   -7.4670 H         1 <0>         0.1312
     37 H5         -0.7129   -8.1906   -7.1934 H         1 <0>         0.1338
     38 H6          2.7189   -6.2772   -5.0824 H         1 <0>         0.1474
     39 H7          3.9203   -4.1340   -4.9360 H         1 <0>         0.1394
     40 H8          0.1939   -2.0448   -5.0725 H         1 <0>         0.1459
     41 H9         -0.9991   -4.1921   -5.2287 H         1 <0>         0.1529
     42 H10         4.5041   -2.1180   -6.8630 H         1 <0>         0.1378
     43 H11         7.9827   -1.8874   -4.3667 H         1 <0>         0.1567
     44 H12         4.0885   -1.4809   -2.6595 H         1 <0>         0.1486
     45 H13         4.4467   -3.0681   -1.0307 H         1 <0>         0.0787
     46 H14         6.1208   -3.3954   -0.4733 H         1 <0>         0.0875
     47 H15         3.8862   -1.8865    0.9913 H         1 <0>         0.0734
     48 H16         4.9362   -3.1961    1.6176 H         1 <0>         0.0781
     49 H17         5.4592   -0.5072    2.0335 H         1 <0>         0.0814
     50 H18         6.7370   -1.7538    1.9669 H         1 <0>         0.0787
     51 H19         6.6428    1.2606    0.8313 H         1 <0>         0.3861
     52 H20         5.6819   -2.3647   -8.2471 H         1 <0>         0.4252
     53 H21        10.4750   -2.8863  -10.5073 H         1 <0>         0.1783
     54 H22         8.9238   -3.1176  -12.5937 H         1 <0>         0.2013
@<TRIPOS>BOND
     1    1    2 1
     2    1   35 1
     3    1   36 1
     4    1   37 1
     5    2    3 2
     6    2    4 2
     7    2    5 1
     8    5   10 ar
     9    5    6 ar
    10    6    7 ar
    11    6   38 1
    12    7    8 ar
    13    7   39 1
    14    8    9 ar
    15    8   11 1
    16    9   10 ar
    17    9   40 1
    18   10   41 1
    19   11   12 1
    20   12   17 ar
    21   12   13 ar
    22   13   14 ar
    23   13   42 1
    24   14   15 ar
    25   14   27 1
    26   15   16 ar
    27   15   43 1
    28   16   17 ar
    29   16   18 1
    30   17   44 1
    31   18   19 1
    32   19   20 1
    33   19   24 1
    34   19   21 1
    35   21   22 1
    36   21   45 1
    37   21   46 1
    38   22   23 1
    39   22   47 1
    40   22   48 1
    41   23   24 1
    42   23   49 1
    43   23   50 1
    44   24   25 1
    45   24   26 1
    46   26   51 1
    47   27   28 2
    48   27   29 am
    49   29   30 1
    50   29   52 1
    51   30   34 1
    52   30   31 2
    53   31   32 1
    54   32   33 2
    55   32   53 1
    56   33   34 1
    57   33   54 1
@<TRIPOS>MOLECULE
CHEMBL574879
   37    40     0     0     0
SMALL
USER_CHARGES

@<TRIPOS>ATOM
      1 C1          1.6825    1.2992    0.0031 C.3       1 <0>         0.1038
      2 N1          1.4040   -0.1391   -0.0036 N.pl3     1 <0>        -0.3690
      3 C2          1.2590   -0.9134   -1.0996 C.2       1 <0>         0.0608
      4 C3          1.0125   -2.1769   -0.6853 C.2       1 <0>        -0.2616
      5 C4          1.0063   -2.1763    0.7190 C.2       1 <0>         0.2971
      6 N2          1.2478   -0.9522    1.1262 N.2       1 <0>        -0.3264
      7 N3          0.7866   -3.2885    1.5412 N.pl3     1 <0>        -0.5992
      8 C5          0.5488   -4.5258    0.9790 C.ar      1 <0>         0.4825
      9 C6          0.3183   -5.6625    1.7925 C.ar      1 <0>        -0.1761
     10 C7          0.3202   -5.5881    3.1894 C.ar      1 <0>        -0.0668
     11 C8          0.0891   -6.7294    3.9273 C.ar      1 <0>         0.0811
     12 C9         -0.1450   -7.9517    3.2928 C.ar      1 <0>        -0.0690
     13 C10        -0.1513   -8.0463    1.9341 C.ar      1 <0>        -0.0894
     14 C11         0.0798   -6.9043    1.1551 C.ar      1 <0>         0.1945
     15 N4          0.0824   -6.9504   -0.1862 N.ar      1 <0>        -0.5417
     16 C12         0.3018   -5.8651   -0.8890 C.ar      1 <0>         0.3486
     17 N5          0.5243   -4.6823   -0.3377 N.ar      1 <0>        -0.5730
     18 O1          0.0895   -6.6648    5.2849 O.3       1 <0>        -0.2356
     19 C13        -1.0018   -6.1415    5.8980 C.ar      1 <0>         0.2633
     20 C14        -1.0048   -5.9555    7.2768 C.ar      1 <0>         0.0517
     21 N6         -2.0678   -5.4458    7.8698 N.ar      1 <0>        -0.4021
     22 C15        -3.1291   -5.1121    7.1549 C.ar      1 <0>         0.0132
     23 C16        -3.1293   -5.2961    5.7852 C.ar      1 <0>         0.0947
     24 N7         -2.0653   -5.8012    5.1841 N.ar      1 <0>        -0.4847
     25 H1          2.7605    1.4606    0.0042 H         1 <0>         0.0752
     26 H2          1.2473    1.7577   -0.8849 H         1 <0>         0.0905
     27 H3          1.2468    1.7494    0.8951 H         1 <0>         0.0885
     28 H4          1.3276   -0.5826   -2.1254 H         1 <0>         0.1791
     29 H5          0.8488   -3.0341   -1.3215 H         1 <0>         0.1858
     30 H6          0.8017   -3.1889    2.5060 H         1 <0>         0.4247
     31 H7          0.5014   -4.6458    3.6850 H         1 <0>         0.1300
     32 H8         -0.3233   -8.8348    3.8884 H         1 <0>         0.1430
     33 H9         -0.3336   -8.9986    1.4584 H         1 <0>         0.1520
     34 H10         0.2967   -5.9388   -1.9664 H         1 <0>         0.2019
     35 H11        -0.1384   -6.2282    7.8610 H         1 <0>         0.1801
     36 H12        -3.9979   -4.6951    7.6425 H         1 <0>         0.1766
     37 H13        -3.9980   -5.0231    5.2044 H         1 <0>         0.1756
@<TRIPOS>BOND
     1    1    2 1
     2    1   25 1
     3    1   26 1
     4    1   27 1
     5    2    6 1
     6    2    3 1
     7    3    4 2
     8    3   28 1
     9    4    5 1
    10    4   29 1
    11    5    6 2
    12    5    7 1
    13    7    8 1
    14    7   30 1
    15    8   17 ar
    16    8    9 ar
    17    9   14 ar
    18    9   10 ar
    19   10   11 ar
    20   10   31 1
    21   11   12 ar
    22   11   18 1
    23   12   13 ar
    24   12   32 1
    25   13   14 ar
    26   13   33 1
    27   14   15 ar
    28   15   16 ar
    29   16   17 ar
    30   16   34 1
    31   18   19 1
    32   19   24 ar
    33   19   20 ar
    34   20   21 ar
    35   20   35 1
    36   21   22 ar
    37   22   23 ar
    38   22   36 1
    39   23   24 ar
    40   23   37 1
@<TRIPOS>MOLECULE
CHEMBL558885
   39    42     0     0     0
SMALL
USER_CHARGES

@<TRIPOS>ATOM
      1 C1          1.1720    1.4040   -1.1941 C.ar      1 <0>        -0.0990
      2 C2          1.1770    2.0864    0.0087 C.ar      1 <0>        -0.1216
      3 C3          1.2017    1.3877    1.2044 C.ar      1 <0>         0.0911
      4 C4          1.2215    0.0046    1.1977 C.ar      1 <0>        -0.0990
      5 C5          1.2165   -0.6820   -0.0098 C.ar      1 <0>        -0.1715
      6 C6          1.1916    0.0235   -1.2072 C.ar      1 <0>        -0.0729
      7 S1          1.2423   -2.4438   -0.0236 S.3       1 <0>         0.1465
      8 C7         -0.4528   -2.8961    0.1394 C.ar      1 <0>        -0.1010
      9 C8         -1.4519   -1.9185    0.1296 C.ar      1 <0>        -0.0764
     10 C9         -2.7654   -2.3178    0.2595 C.ar      1 <0>        -0.0872
     11 C10        -3.0595   -3.6765    0.3963 C.ar      1 <0>         0.0772
     12 N1         -2.0998   -4.5812    0.4028 N.ar      1 <0>        -0.3869
     13 C11        -0.8194   -4.2406    0.2748 C.ar      1 <0>         0.0927
     14 C12         0.2213   -5.2867    0.2811 C.2       1 <0>         0.5694
     15 O1          1.3926   -4.9799    0.1690 O.2       1 <0>        -0.4393
     16 N2         -0.1264   -6.5824    0.4112 N.am      1 <0>        -0.6014
     17 C13         0.8530   -7.5669    0.4172 C.2       1 <0>         0.2726
     18 N3          2.1568   -7.4238    0.3142 N.2       1 <0>        -0.5217
     19 C14         2.9619   -8.4698    0.3376 C.2       1 <0>         0.0642
     20 C15         2.3844   -9.6890    0.4718 C.2       1 <0>        -0.2449
     21 S2          0.6608   -9.2323    0.5654 S.3       1 <0>         0.1091
     22 S3         -4.7370   -4.1892    0.5630 S.3       1 <0>         0.1859
     23 C16        -4.6349   -5.9426    0.7041 C.2       1 <0>         0.2415
     24 N4         -3.5308   -6.6589    0.6840 N.2       1 <0>        -0.5013
     25 H1         -6.6145   -6.5543    0.9116 H         1 <0>         0.4458
     26 C17        -3.8310   -7.9511    0.8154 C.2       1 <0>         0.2003
     27 N5         -5.1263   -8.0812    0.9211 N.2       1 <0>        -0.2950
     28 N6         -5.6751   -6.7902    0.8578 N.pl3     1 <0>        -0.4589
     29 F1          1.2070    2.0573    2.3778 F         1 <0>        -0.1339
     30 H2          1.1481    1.9517   -2.1246 H         1 <0>         0.1420
     31 H3          1.1619    3.1663    0.0157 H         1 <0>         0.1423
     32 H4          1.2412   -0.5406    2.1298 H         1 <0>         0.1444
     33 H5          1.1873   -0.5080   -2.1474 H         1 <0>         0.1411
     34 H6         -1.2006   -0.8735    0.0229 H         1 <0>         0.1512
     35 H7         -3.5599   -1.5863    0.2559 H         1 <0>         0.1540
     36 H8         -1.0608   -6.8272    0.5007 H         1 <0>         0.4429
     37 H9          4.0329   -8.3592    0.2531 H         1 <0>         0.1771
     38 H10         2.8412  -10.6666    0.5146 H         1 <0>         0.1999
     39 H11        -3.1170   -8.7613    0.8315 H         1 <0>         0.2206
@<TRIPOS>BOND
     1    1    6 ar
     2    1    2 ar
     3    1   30 1
     4    2    3 ar
     5    2   31 1
     6    3    4 ar
     7    3   29 1
     8    4    5 ar
     9    4   32 1
    10    5    6 ar
    11    5    7 1
    12    6   33 1
    13    7    8 1
    14    8   13 ar
    15    8    9 ar
    16    9   10 ar
    17    9   34 1
    18   10   11 ar
    19   10   35 1
    20   11   12 ar
    21   11   22 1
    22   12   13 ar
    23   13   14 1
    24   14   15 2
    25   14   16 am
    26   16   17 1
    27   16   36 1
    28   17   21 1
    29   17   18 2
    30   18   19 1
    31   19   20 2
    32   19   37 1
    33   20   21 1
    34   20   38 1
    35   22   23 1
    36   23   24 2
    37   23   28 1
    38   24   26 1
    39   25   28 1
    40   26   39 1
    41   26   27 2
    42   27   28 1
@<TRIPOS>MOLECULE
CHEMBL558885__1
   39    42     0     0     0
SMALL
USER_CHARGES

@<TRIPOS>ATOM
      1 C1          1.1722    1.4044   -1.1936 C.ar      1 <0>        -0.0988
      2 C2          1.1775    2.0864    0.0095 C.ar      1 <0>        -0.1215
      3 C3          1.2020    1.3873    1.2050 C.ar      1 <0>         0.0913
      4 C4          1.2218    0.0042    1.1977 C.ar      1 <0>        -0.0992
      5 C5          1.2165   -0.6820   -0.0100 C.ar      1 <0>        -0.1697
      6 C6          1.1915    0.0239   -1.2072 C.ar      1 <0>        -0.0730
      7 S1          1.2423   -2.4438   -0.0244 S.3       1 <0>         0.1411
      8 C7         -0.4528   -2.8962    0.1387 C.ar      1 <0>        -0.1036
      9 C8         -1.4516   -1.9185    0.1294 C.ar      1 <0>        -0.0739
     10 C9         -2.7565   -2.3121    0.2589 C.ar      1 <0>        -0.0886
     11 C10        -3.0566   -3.6695    0.3960 C.ar      1 <0>         0.0720
     12 N1         -2.1008   -4.5787    0.4032 N.ar      1 <0>        -0.4080
     13 C11        -0.8192   -4.2407    0.2738 C.ar      1 <0>         0.0906
     14 C12         0.2204   -5.2879    0.2793 C.2       1 <0>         0.5693
     15 O1          1.3919   -4.9822    0.1667 O.2       1 <0>        -0.4370
     16 N2         -0.1286   -6.5832    0.4091 N.am      1 <0>        -0.6040
     17 C13         0.8498   -7.5688    0.4143 C.2       1 <0>         0.2735
     18 N3          2.1537   -7.4270    0.3107 N.2       1 <0>        -0.5197
     19 C14         2.9577   -8.4738    0.3336 C.2       1 <0>         0.0654
     20 C15         2.3790   -9.6924    0.4681 C.2       1 <0>        -0.2420
     21 S2          0.6560   -9.2341    0.5620 S.3       1 <0>         0.0993
     22 S3         -4.7364   -4.1746    0.5626 S.3       1 <0>         0.2165
     23 C16        -4.6422   -5.9283    0.7043 C.2       1 <0>         0.1852
     24 N4         -5.6828   -6.7546    0.8510 N.2       1 <0>        -0.5171
     25 H1         -3.3315   -8.7537    0.8476 H         1 <0>         0.4430
     26 C17        -5.2597   -7.9906    0.9247 C.2       1 <0>         0.2776
     27 N5         -3.9198   -7.9828    0.8253 N.pl3     1 <0>        -0.4867
     28 N6         -3.5392   -6.6391    0.6776 N.2       1 <0>        -0.2713
     29 F1          1.2070    2.0565    2.3785 F         1 <0>        -0.1338
     30 H2          1.1486    1.9524   -2.1239 H         1 <0>         0.1421
     31 H3          1.1627    3.1663    0.0169 H         1 <0>         0.1425
     32 H4          1.2416   -0.5413    2.1297 H         1 <0>         0.1442
     33 H5          1.1871   -0.5072   -2.1475 H         1 <0>         0.1409
     34 H6         -1.1992   -0.8739    0.0226 H         1 <0>         0.1505
     35 H7         -3.5485   -1.5780    0.2553 H         1 <0>         0.1549
     36 H8         -1.0632   -6.8271    0.4990 H         1 <0>         0.4390
     37 H9          4.0288   -8.3643    0.2487 H         1 <0>         0.1785
     38 H10         2.8349  -10.6706    0.5100 H         1 <0>         0.2010
     39 H11        -5.8806   -8.8662    1.0446 H         1 <0>         0.2295
@<TRIPOS>BOND
     1    1    6 ar
     2    1    2 ar
     3    1   30 1
     4    2    3 ar
     5    2   31 1
     6    3    4 ar
     7    3   29 1
     8    4    5 ar
     9    4   32 1
    10    5    6 ar
    11    5    7 1
    12    6   33 1
    13    7    8 1
    14    8   13 ar
    15    8    9 ar
    16    9   10 ar
    17    9   34 1
    18   10   11 ar
    19   10   35 1
    20   11   12 ar
    21   11   22 1
    22   12   13 ar
    23   13   14 1
    24   14   15 2
    25   14   16 am
    26   16   17 1
    27   16   36 1
    28   17   21 1
    29   17   18 2
    30   18   19 1
    31   19   20 2
    32   19   37 1
    33   20   21 1
    34   20   38 1
    35   22   23 1
    36   23   24 1
    37   23   28 2
    38   24   26 2
    39   25   27 1
    40   26   39 1
    41   26   27 1
    42   27   28 1
@<TRIPOS>MOLECULE
CHEMBL480725
   58    61     0     0     0
SMALL
USER_CHARGES

@<TRIPOS>ATOM
      1 C1          0.0151    1.5792   -0.2657 C.ar      1 <0>        -0.1274
      2 C2          1.1648    2.3130   -0.4906 C.ar      1 <0>        -0.0210
      3 C3          2.3850    1.6716   -0.5938 C.ar      1 <0>        -0.6518
      4 C4          2.4556    0.2965   -0.4717 C.ar      1 <0>        -0.0210
      5 C5          1.3060   -0.4373   -0.2459 C.ar      1 <0>        -0.1056
      6 C6          0.0856    0.2040   -0.1441 C.ar      1 <0>        -0.0156
      7 C7         -1.1677   -0.5960    0.1015 C.3       1 <0>        -0.0686
      8 H1         -2.0239    0.0767    0.1531 H         1 <0>         0.1215
      9 C8         -1.3696   -1.5917   -1.0424 C.3       1 <0>        -0.1077
     10 C9         -1.6232   -0.8285   -2.3440 C.3       1 <0>        -0.0911
     11 C10        -2.9643   -0.0938   -2.2543 C.3       1 <0>        -0.1545
     12 C11        -3.2464    0.6020   -3.5885 C.3       1 <0>         0.0587
     13 O1         -3.2467   -0.3670   -4.6388 O.3       1 <0>        -0.3814
     14 C12        -2.0032   -1.0523   -4.8007 C.3       1 <0>         0.0588
     15 C13        -1.6711   -1.8146   -3.5152 C.3       1 <0>        -0.1508
     16 C14        -1.0385   -1.3452    1.4027 C.2       1 <0>         0.5150
     17 O2         -0.0495   -1.2011    2.0899 O.2       1 <0>        -0.4505
     18 N1         -2.0220   -2.1754    1.8028 N.am      1 <0>        -0.6159
     19 C15        -1.8571   -2.9480    2.9477 C.2       1 <0>         0.3382
     20 N2         -0.8298   -3.0102    3.7760 N.2       1 <0>        -0.4857
     21 C16        -0.8441   -3.8089    4.8256 C.2       1 <0>         0.0389
     22 C17        -1.9307   -4.5853    5.0673 C.2       1 <0>        -0.0241
     23 S1         -2.9818   -4.1178    3.6981 S.3       1 <0>         0.0465
     24 F1         -2.1577   -5.4638    6.0682 F         1 <0>        -0.0663
     25 S2          3.8503    2.6068   -0.8816 S.o2      1 <0>         2.4905
     26 O3          4.7371    1.7024   -1.5257 O.2       1 <0>        -0.9374
     27 O4          3.4059    3.7820   -1.5456 O.2       1 <0>        -0.9317
     28 C18         4.4717    3.0204    0.7717 C.3       1 <0>        -0.5704
     29 C19         3.3975    3.7971    1.5608 C.3       1 <0>        -0.1066
     30 C20         4.2037    4.8400    2.3742 C.3       1 <0>        -0.1184
     31 C21         5.3175    5.2598    1.3830 C.3       1 <0>        -0.1273
     32 C22         5.6924    3.9504    0.6586 C.3       1 <0>        -0.1016
     33 H2         -0.9376    2.0807   -0.1805 H         1 <0>         0.1338
     34 H3          1.1097    3.3873   -0.5860 H         1 <0>         0.1431
     35 H4          3.4088   -0.2047   -0.5531 H         1 <0>         0.1420
     36 H5          1.3610   -1.5117   -0.1512 H         1 <0>         0.1300
     37 H6         -0.4765   -2.2072   -1.1503 H         1 <0>         0.0807
     38 H7         -2.2259   -2.2292   -0.8223 H         1 <0>         0.0779
     39 H8         -0.8215   -0.1081   -2.5065 H         1 <0>         0.0808
     40 H9         -3.7583   -0.8097   -2.0418 H         1 <0>         0.0755
     41 H10        -2.9200    0.6493   -1.4581 H         1 <0>         0.0740
     42 H11        -4.2196    1.0910   -3.5448 H         1 <0>         0.0949
     43 H12        -2.4737    1.3463   -3.7808 H         1 <0>         0.0515
     44 H13        -2.0808   -1.7551   -5.6303 H         1 <0>         0.0955
     45 H14        -1.2142   -0.3296   -5.0088 H         1 <0>         0.0514
     46 H15        -0.7020   -2.3021   -3.6208 H         1 <0>         0.0757
     47 H16        -2.4390   -2.5652   -3.3282 H         1 <0>         0.0743
     48 H17        -2.8447   -2.2342    1.2923 H         1 <0>         0.4299
     49 H18         0.0063   -3.8451    5.4903 H         1 <0>         0.1837
     50 H19         4.7438    2.1104    1.3064 H         1 <0>         0.1429
     51 H20         2.7086    4.2952    0.8787 H         1 <0>         0.0804
     52 H21         2.8565    3.1274    2.2293 H         1 <0>         0.0855
     53 H22         3.5780    5.6932    2.6361 H         1 <0>         0.0765
     54 H23         4.6326    4.3856    3.2673 H         1 <0>         0.0736
     55 H24         4.9386    5.9940    0.6721 H         1 <0>         0.0766
     56 H25         6.1776    5.6574    1.9217 H         1 <0>         0.0768
     57 H26         6.5567    3.4921    1.1392 H         1 <0>         0.0894
     58 H27         5.9114    4.1532   -0.3897 H         1 <0>         0.0680
@<TRIPOS>BOND
     1    1    6 ar
     2    1    2 ar
     3    1   33 1
     4    2    3 ar
     5    2   34 1
     6    3    4 ar
     7    3   25 1
     8    4    5 ar
     9    4   35 1
    10    5    6 ar
    11    5   36 1
    12    6    7 1
    13    7    8 1
    14    7    9 1
    15    7   16 1
    16    9   10 1
    17    9   37 1
    18    9   38 1
    19   10   15 1
    20   10   11 1
    21   10   39 1
    22   11   12 1
    23   11   40 1
    24   11   41 1
    25   12   13 1
    26   12   42 1
    27   12   43 1
    28   13   14 1
    29   14   15 1
    30   14   44 1
    31   14   45 1
    32   15   46 1
    33   15   47 1
    34   16   17 2
    35   16   18 am
    36   18   19 1
    37   18   48 1
    38   19   23 1
    39   19   20 2
    40   20   21 1
    41   21   22 2
    42   21   49 1
    43   22   23 1
    44   22   24 1
    45   25   26 2
    46   25   27 2
    47   25   28 1
    48   28   32 1
    49   28   29 1
    50   28   50 1
    51   29   30 1
    52   29   51 1
    53   29   52 1
    54   30   31 1
    55   30   53 1
    56   30   54 1
    57   31   32 1
    58   31   55 1
    59   31   56 1
    60   32   57 1
    61   32   58 1
@<TRIPOS>MOLECULE
CHEMBL551648
   39    42     0     0     0
SMALL
USER_CHARGES

@<TRIPOS>ATOM
      1 C1         -0.0146    1.3823    0.0202 C.ar      1 <0>        -0.0862
      2 C2          0.6034    1.0406    1.2094 C.ar      1 <0>        -0.1299
      3 C3          1.8087    0.3671    1.1943 C.ar      1 <0>        -0.0630
      4 C4          2.4006    0.0323   -0.0176 C.ar      1 <0>        -0.1979
      5 C5          1.7765    0.3768   -1.2105 C.ar      1 <0>        -0.0626
      6 C6          0.5715    1.0507   -1.1879 C.ar      1 <0>        -0.1301
      7 S1          3.9389   -0.8266   -0.0417 S.3       1 <0>         0.1354
      8 C7          3.4826   -2.5224    0.1029 C.ar      1 <0>        -0.0980
      9 C8          2.1363   -2.8981    0.0897 C.ar      1 <0>        -0.0769
     10 C9          1.8251   -4.2365    0.2057 C.ar      1 <0>        -0.0876
     11 C10         2.8544   -5.1724    0.3321 C.ar      1 <0>         0.0750
     12 N1          4.1178   -4.7940    0.3425 N.ar      1 <0>        -0.3870
     13 C11         4.4634   -3.5138    0.2270 C.ar      1 <0>         0.0899
     14 C12         5.8899   -3.1362    0.2362 C.2       1 <0>         0.5692
     15 O1          6.2101   -1.9674    0.1363 O.2       1 <0>        -0.4390
     16 N2          6.8379   -4.0868    0.3554 N.am      1 <0>        -0.6020
     17 C13         8.1804   -3.7314    0.3641 C.2       1 <0>         0.2736
     18 N3          8.7087   -2.5299    0.2734 N.2       1 <0>        -0.5221
     19 C14        10.0171   -2.3564    0.2976 C.2       1 <0>         0.0645
     20 C15        10.7839   -3.4677    0.4195 C.2       1 <0>        -0.2457
     21 S2          9.5263   -4.7325    0.5005 S.3       1 <0>         0.1081
     22 S3          2.4592   -6.8830    0.4804 S.3       1 <0>         0.1841
     23 C16         4.0285   -7.6732    0.6126 C.2       1 <0>         0.2421
     24 N4          5.2010   -7.0754    0.5989 N.2       1 <0>        -0.5011
     25 H1          3.5679   -9.6955    0.7980 H         1 <0>         0.4456
     26 C17         6.1698   -7.9831    0.7203 C.2       1 <0>         0.2002
     27 N5          5.6345   -9.1709    0.8132 N.2       1 <0>        -0.2955
     28 N6          4.2421   -8.9995    0.7520 N.pl3     1 <0>        -0.4593
     29 H2         -0.9593    1.9054    0.0349 H         1 <0>         0.1285
     30 H3          0.1428    1.3011    2.1508 H         1 <0>         0.1298
     31 H4          2.2911    0.1012    2.1233 H         1 <0>         0.1311
     32 H5          2.2337    0.1182   -2.1542 H         1 <0>         0.1324
     33 H6          0.0861    1.3191   -2.1145 H         1 <0>         0.1301
     34 H7          1.3572   -2.1567   -0.0088 H         1 <0>         0.1517
     35 H8          0.7942   -4.5585    0.1992 H         1 <0>         0.1529
     36 H9          6.5824   -5.0191    0.4351 H         1 <0>         0.4426
     37 H10        10.4571   -1.3729    0.2233 H         1 <0>         0.1768
     38 H11        11.8591   -3.5618    0.4600 H         1 <0>         0.1997
     39 H12         7.2285   -7.7704    0.7383 H         1 <0>         0.2205
@<TRIPOS>BOND
     1    1    6 ar
     2    1    2 ar
     3    1   29 1
     4    2    3 ar
     5    2   30 1
     6    3    4 ar
     7    3   31 1
     8    4    5 ar
     9    4    7 1
    10    5    6 ar
    11    5   32 1
    12    6   33 1
    13    7    8 1
    14    8   13 ar
    15    8    9 ar
    16    9   10 ar
    17    9   34 1
    18   10   11 ar
    19   10   35 1
    20   11   12 ar
    21   11   22 1
    22   12   13 ar
    23   13   14 1
    24   14   15 2
    25   14   16 am
    26   16   17 1
    27   16   36 1
    28   17   21 1
    29   17   18 2
    30   18   19 1
    31   19   20 2
    32   19   37 1
    33   20   21 1
    34   20   38 1
    35   22   23 1
    36   23   24 2
    37   23   28 1
    38   24   26 1
    39   25   28 1
    40   26   39 1
    41   26   27 2
    42   27   28 1
@<TRIPOS>MOLECULE
CHEMBL551648__1
   39    42     0     0     0
SMALL
USER_CHARGES

@<TRIPOS>ATOM
      1 C1         -0.0148    1.3819    0.0195 C.ar      1 <0>        -0.0862
      2 C2          0.6029    1.0406    1.2090 C.ar      1 <0>        -0.1297
      3 C3          1.8082    0.3671    1.1944 C.ar      1 <0>        -0.0631
      4 C4          2.4006    0.0323   -0.0172 C.ar      1 <0>        -0.1960
      5 C5          1.7771    0.3768   -1.2104 C.ar      1 <0>        -0.0627
      6 C6          0.5718    1.0503   -1.1883 C.ar      1 <0>        -0.1299
      7 S1          3.9389   -0.8266   -0.0406 S.3       1 <0>         0.1300
      8 C7          3.4826   -2.5224    0.1038 C.ar      1 <0>        -0.1005
      9 C8          2.1364   -2.8980    0.0900 C.ar      1 <0>        -0.0745
     10 C9          1.8244   -4.2261    0.2043 C.ar      1 <0>        -0.0889
     11 C10         2.8495   -5.1665    0.3309 C.ar      1 <0>         0.0700
     12 N1          4.1150   -4.7938    0.3425 N.ar      1 <0>        -0.4080
     13 C11         4.4634   -3.5137    0.2282 C.ar      1 <0>         0.0877
     14 C12         5.8902   -3.1375    0.2387 C.2       1 <0>         0.5690
     15 O1          6.2117   -1.9689    0.1394 O.2       1 <0>        -0.4367
     16 N2          6.8372   -4.0891    0.3583 N.am      1 <0>        -0.6046
     17 C13         8.1800   -3.7350    0.3681 C.2       1 <0>         0.2747
     18 N3          8.7095   -2.5339    0.2783 N.2       1 <0>        -0.5201
     19 C14        10.0182   -2.3617    0.3032 C.2       1 <0>         0.0657
     20 C15        10.7838   -3.4739    0.4248 C.2       1 <0>        -0.2427
     21 S2          9.5249   -4.7375    0.5053 S.3       1 <0>         0.0980
     22 S3          2.4465   -6.8755    0.4780 S.3       1 <0>         0.2143
     23 C16         4.0121   -7.6728    0.6109 C.2       1 <0>         0.1856
     24 N4          4.2069   -8.9888    0.7426 N.2       1 <0>        -0.5173
     25 H1          7.1142   -7.9530    0.7515 H         1 <0>         0.4429
     26 C17         5.4888   -9.2416    0.8136 C.2       1 <0>         0.2771
     27 N5          6.1523   -8.0764    0.7276 N.pl3     1 <0>        -0.4869
     28 N6          5.1793   -7.0730    0.5912 N.2       1 <0>        -0.2710
     29 H2         -0.9597    1.9047    0.0339 H         1 <0>         0.1287
     30 H3          0.1421    1.3014    2.1503 H         1 <0>         0.1300
     31 H4          2.2902    0.1012    2.1236 H         1 <0>         0.1308
     32 H5          2.2348    0.1185   -2.1539 H         1 <0>         0.1322
     33 H6          0.0865    1.3181   -2.1152 H         1 <0>         0.1302
     34 H7          1.3582   -2.1556   -0.0085 H         1 <0>         0.1509
     35 H8          0.7925   -4.5446    0.1969 H         1 <0>         0.1539
     36 H9          6.5808   -5.0212    0.4375 H         1 <0>         0.4387
     37 H10        10.4592   -1.3786    0.2295 H         1 <0>         0.1783
     38 H11        11.8588   -3.5690    0.4658 H         1 <0>         0.2008
     39 H12         5.9363  -10.2185    0.9225 H         1 <0>         0.2293
@<TRIPOS>BOND
     1    1    6 ar
     2    1    2 ar
     3    1   29 1
     4    2    3 ar
     5    2   30 1
     6    3    4 ar
     7    3   31 1
     8    4    5 ar
     9    4    7 1
    10    5    6 ar
    11    5   32 1
    12    6   33 1
    13    7    8 1
    14    8   13 ar
    15    8    9 ar
    16    9   10 ar
    17    9   34 1
    18   10   11 ar
    19   10   35 1
    20   11   12 ar
    21   11   22 1
    22   12   13 ar
    23   13   14 1
    24   14   15 2
    25   14   16 am
    26   16   17 1
    27   16   36 1
    28   17   21 1
    29   17   18 2
    30   18   19 1
    31   19   20 2
    32   19   37 1
    33   20   21 1
    34   20   38 1
    35   22   23 1
    36   23   24 1
    37   23   28 2
    38   24   26 2
    39   25   27 1
    40   26   39 1
    41   26   27 1
    42   27   28 1
@<TRIPOS>MOLECULE
CHEMBL596480
   57    60     0     0     0
SMALL
USER_CHARGES

@<TRIPOS>ATOM
      1 C1         -0.3479    1.5417   -2.4417 C.3       1 <0>        -0.1509
      2 C2         -0.3003    0.0163   -2.3331 C.3       1 <0>        -0.6084
      3 S1          0.8345   -0.4599   -1.0004 S.o2      1 <0>         2.4958
      4 O1          2.1706   -0.1291   -1.3538 O.2       1 <0>        -0.9327
      5 O2          0.3011   -0.0726    0.2584 O.2       1 <0>        -0.9336
      6 C3          0.7974   -2.2214   -0.9818 C.ar      1 <0>        -0.6702
      7 C4         -0.1281   -2.8839   -0.1966 C.ar      1 <0>        -0.0076
      8 C5         -0.1596   -4.2648   -0.1806 C.ar      1 <0>        -0.1641
      9 C6          0.7385   -4.9871   -0.9533 C.ar      1 <0>         0.1584
     10 C7          1.6662   -4.3198   -1.7404 C.ar      1 <0>        -0.1419
     11 C8          1.6900   -2.9387   -1.7568 C.ar      1 <0>        -0.0046
     12 O3          0.7098   -6.3455   -0.9390 O.3       1 <0>        -0.2156
     13 C9         -0.3876   -6.9660   -1.4467 C.ar      1 <0>         0.1620
     14 C10        -1.3796   -6.2190   -2.0575 C.ar      1 <0>        -0.2050
     15 C11        -2.4986   -6.8557   -2.5748 C.ar      1 <0>         0.0991
     16 C12        -2.6178   -8.2543   -2.4755 C.ar      1 <0>         0.0222
     17 C13        -1.6031   -8.9901   -1.8536 C.ar      1 <0>        -0.0081
     18 C14        -0.5051   -8.3506   -1.3547 C.ar      1 <0>        -0.1301
     19 C15         0.5871   -9.1499   -0.6919 C.3       1 <0>         0.1640
     20 N1          0.4337   -9.0738    0.7631 N.am      1 <0>        -0.6180
     21 C16        -0.3826  -10.0664    1.4664 C.3       1 <0>         0.0752
     22 C17         1.0435   -8.0907    1.4545 C.2       1 <0>         0.5062
     23 O4          1.8014   -7.3315    0.8886 O.2       1 <0>        -0.5153
     24 C18         0.7837   -7.9348    2.9307 C.3       1 <0>        -0.1795
     25 N2         -3.7926   -8.5977   -3.0564 N.2       1 <0>        -0.4594
     26 C19        -4.3955   -7.5231   -3.4996 C.2       1 <0>         0.3250
     27 N3         -3.6341   -6.4176   -3.2256 N.pl3     1 <0>        -0.5781
     28 C20        -5.7029   -7.5054   -4.1924 C.ar      1 <0>         0.1800
     29 C21        -6.3876   -8.7010   -4.4083 C.ar      1 <0>        -0.1186
     30 C22        -7.6095   -8.6681   -5.0578 C.ar      1 <0>        -0.0731
     31 C23        -8.1075   -7.4404   -5.4705 C.ar      1 <0>        -0.1573
     32 C24        -7.3750   -6.2929   -5.2235 C.ar      1 <0>         0.1068
     33 N4         -6.2174   -6.3508   -4.5988 N.ar      1 <0>        -0.4804
     34 H1         -0.6977    1.9623   -1.4990 H         1 <0>         0.0750
     35 H2          0.6499    1.9216   -2.6611 H         1 <0>         0.0754
     36 H3         -1.0298    1.8278   -3.2425 H         1 <0>         0.0855
     37 H4         -1.2981   -0.3637   -2.1137 H         1 <0>         0.1344
     38 H5          0.0495   -0.4044   -3.2759 H         1 <0>         0.1355
     39 H6         -0.8266   -2.3212    0.4049 H         1 <0>         0.1478
     40 H7         -0.8825   -4.7818    0.4332 H         1 <0>         0.1369
     41 H8          2.3663   -4.8796   -2.3428 H         1 <0>         0.1447
     42 H9          2.4089   -2.4188   -2.3727 H         1 <0>         0.1511
     43 H10        -1.2835   -5.1458   -2.1309 H         1 <0>         0.1325
     44 H11        -1.6861  -10.0639   -1.7729 H         1 <0>         0.1435
     45 H12         0.5204  -10.1902   -1.0104 H         1 <0>         0.0898
     46 H13         1.5580   -8.7443   -0.9766 H         1 <0>         0.1002
     47 H14         0.2591  -10.8617    1.8457 H         1 <0>         0.0593
     48 H15        -0.8990   -9.5882    2.2988 H         1 <0>         0.0730
     49 H16        -1.1153  -10.4878    0.7782 H         1 <0>         0.0739
     50 H17         0.1565   -8.7559    3.2779 H         1 <0>         0.0798
     51 H18         1.7309   -7.9480    3.4697 H         1 <0>         0.0930
     52 H19         0.2756   -6.9877    3.1121 H         1 <0>         0.0907
     53 H20        -5.9702   -9.6393   -4.0738 H         1 <0>         0.1518
     54 H21        -8.1628   -9.5776   -5.2395 H         1 <0>         0.1453
     55 H22        -9.0578   -7.3813   -5.9802 H         1 <0>         0.1430
     56 H23        -7.7602   -5.3361   -5.5437 H         1 <0>         0.1647
     57 H24        -3.8524   -5.4989   -3.4472 H         1 <0>         0.4310
@<TRIPOS>BOND
     1    1    2 1
     2    1   34 1
     3    1   35 1
     4    1   36 1
     5    2    3 1
     6    2   37 1
     7    2   38 1
     8    3    4 2
     9    3    5 2
    10    3    6 1
    11    6   11 ar
    12    6    7 ar
    13    7    8 ar
    14    7   39 1
    15    8    9 ar
    16    8   40 1
    17    9   10 ar
    18    9   12 1
    19   10   11 ar
    20   10   41 1
    21   11   42 1
    22   12   13 1
    23   13   18 ar
    24   13   14 ar
    25   14   15 ar
    26   14   43 1
    27   15   27 1
    28   15   16 ar
    29   16   17 ar
    30   16   25 1
    31   17   18 ar
    32   17   44 1
    33   18   19 1
    34   19   20 1
    35   19   45 1
    36   19   46 1
    37   20   21 1
    38   20   22 am
    39   21   47 1
    40   21   48 1
    41   21   49 1
    42   22   23 2
    43   22   24 1
    44   24   50 1
    45   24   51 1
    46   24   52 1
    47   25   26 2
    48   26   27 1
    49   26   28 1
    50   27   57 1
    51   28   33 ar
    52   28   29 ar
    53   29   30 ar
    54   29   53 1
    55   30   31 ar
    56   30   54 1
    57   31   32 ar
    58   31   55 1
    59   32   33 ar
    60   32   56 1
@<TRIPOS>MOLECULE
CHEMBL596480__1
   57    60     0     0     0
SMALL
USER_CHARGES

@<TRIPOS>ATOM
      1 C1          2.6808    1.3839    1.0750 C.3       1 <0>        -0.1505
      2 C2          2.5352   -0.1377    1.0094 C.3       1 <0>        -0.6083
      3 S1          0.8252   -0.5990    1.4017 S.o2      1 <0>         2.4960
      4 O1          0.5424   -0.3157    2.7651 O.2       1 <0>        -0.9343
      5 O2         -0.0495   -0.1558    0.3732 O.2       1 <0>        -0.9347
      6 C3          0.7939   -2.3573    1.2919 C.ar      1 <0>        -0.6700
      7 C4          0.5000   -2.9684    0.0868 C.ar      1 <0>        -0.0067
      8 C5          0.4749   -4.3467   -0.0020 C.ar      1 <0>        -0.1600
      9 C6          0.7449   -5.1180    1.1195 C.ar      1 <0>         0.1604
     10 C7          1.0395   -4.5022    2.3275 C.ar      1 <0>        -0.1439
     11 C8          1.0689   -3.1235    2.4095 C.ar      1 <0>        -0.0054
     12 O3          0.7203   -6.4739    1.0349 O.3       1 <0>        -0.2161
     13 C9          1.6832   -7.0848    0.2946 C.ar      1 <0>         0.1323
     14 C10         2.7176   -6.3394   -0.2345 C.ar      1 <0>        -0.1543
     15 C11         3.7076   -6.9693   -0.9961 C.ar      1 <0>         0.0937
     16 C12         3.6358   -8.3573   -1.2131 C.ar      1 <0>         0.0275
     17 C13         2.5888   -9.0912   -0.6731 C.ar      1 <0>        -0.0606
     18 C14         1.6227   -8.4593    0.0797 C.ar      1 <0>        -0.1023
     19 C15         0.4904   -9.2601    0.6692 C.3       1 <0>         0.1642
     20 N1         -0.7014   -9.1114   -0.1696 N.am      1 <0>        -0.6181
     21 C16        -0.9413  -10.0443   -1.2734 C.3       1 <0>         0.0779
     22 C17        -1.5772   -8.1164    0.0741 C.2       1 <0>         0.5027
     23 O4         -1.3786   -7.3440    0.9879 O.2       1 <0>        -0.5091
     24 C18        -2.8032   -7.9634   -0.7888 C.3       1 <0>        -0.1739
     25 N2          4.7336   -8.6828   -1.9867 N.pl3     1 <0>        -0.5749
     26 H1          4.9695   -9.5671   -2.3082 H         1 <0>         0.4316
     27 C19         5.4252   -7.5244   -2.2152 C.2       1 <0>         0.3406
     28 N3          4.8174   -6.5219   -1.6307 N.2       1 <0>        -0.4755
     29 C20         6.6733   -7.4199   -3.0036 C.ar      1 <0>         0.1766
     30 C21         7.2901   -6.1792   -3.1610 C.ar      1 <0>        -0.1169
     31 C22         8.4572   -6.0977   -3.9010 C.ar      1 <0>        -0.0736
     32 C23         8.9698   -7.2598   -4.4596 C.ar      1 <0>        -0.1555
     33 C24         8.3057   -8.4577   -4.2633 C.ar      1 <0>         0.1067
     34 N4          7.1997   -8.5089   -3.5508 N.ar      1 <0>        -0.4785
     35 H2          2.4323    1.7297    2.0784 H         1 <0>         0.0747
     36 H3          3.7083    1.6611    0.8393 H         1 <0>         0.0853
     37 H4          2.0056    1.8450    0.3542 H         1 <0>         0.0746
     38 H5          2.7837   -0.4835    0.0060 H         1 <0>         0.1357
     39 H6          3.2103   -0.5988    1.7302 H         1 <0>         0.1359
     40 H7          0.2896   -2.3676   -0.7856 H         1 <0>         0.1472
     41 H8          0.2449   -4.8235   -0.9433 H         1 <0>         0.1360
     42 H9          1.2500   -5.1002    3.2018 H         1 <0>         0.1431
     43 H10         1.3028   -2.6437    3.3484 H         1 <0>         0.1500
     44 H11         2.7621   -5.2742   -0.0616 H         1 <0>         0.1378
     45 H12         2.5331  -10.1568   -0.8398 H         1 <0>         0.1361
     46 H13         0.7740  -10.3116    0.7144 H         1 <0>         0.0880
     47 H14         0.2745   -8.8985    1.6746 H         1 <0>         0.1009
     48 H15        -1.5242  -10.8918   -0.9127 H         1 <0>         0.0587
     49 H16        -1.4910   -9.5361   -2.0657 H         1 <0>         0.0727
     50 H17         0.0128  -10.3992   -1.6631 H         1 <0>         0.0695
     51 H18        -3.4079   -8.8680   -0.7245 H         1 <0>         0.0861
     52 H19        -3.3871   -7.1106   -0.4425 H         1 <0>         0.0904
     53 H20        -2.5013   -7.8009   -1.8235 H         1 <0>         0.0843
     54 H21         6.8631   -5.2944   -2.7124 H         1 <0>         0.1515
     55 H22         8.9574   -5.1507   -4.0406 H         1 <0>         0.1455
     56 H23         9.8784   -7.2295   -5.0426 H         1 <0>         0.1435
     57 H24         8.7022   -9.3637   -4.6972 H         1 <0>         0.1655
@<TRIPOS>BOND
     1    1    2 1
     2    1   35 1
     3    1   36 1
     4    1   37 1
     5    2    3 1
     6    2   38 1
     7    2   39 1
     8    3    4 2
     9    3    5 2
    10    3    6 1
    11    6   11 ar
    12    6    7 ar
    13    7    8 ar
    14    7   40 1
    15    8    9 ar
    16    8   41 1
    17    9   10 ar
    18    9   12 1
    19   10   11 ar
    20   10   42 1
    21   11   43 1
    22   12   13 1
    23   13   18 ar
    24   13   14 ar
    25   14   15 ar
    26   14   44 1
    27   15   28 1
    28   15   16 ar
    29   16   17 ar
    30   16   25 1
    31   17   18 ar
    32   17   45 1
    33   18   19 1
    34   19   20 1
    35   19   46 1
    36   19   47 1
    37   20   21 1
    38   20   22 am
    39   21   48 1
    40   21   49 1
    41   21   50 1
    42   22   23 2
    43   22   24 1
    44   24   51 1
    45   24   52 1
    46   24   53 1
    47   25   26 1
    48   25   27 1
    49   27   28 2
    50   27   29 1
    51   29   34 ar
    52   29   30 ar
    53   30   31 ar
    54   30   54 1
    55   31   32 ar
    56   31   55 1
    57   32   33 ar
    58   32   56 1
    59   33   34 ar
    60   33   57 1
@<TRIPOS>MOLECULE
CHEMBL606156
   54    57     0     0     0
SMALL
USER_CHARGES

@<TRIPOS>ATOM
      1 C1         -2.2978    1.3109    1.8112 C.3       1 <0>        -0.1514
      2 C2         -2.1433   -0.2062    1.6872 C.3       1 <0>        -0.6072
      3 S1         -1.6129   -0.6244    0.0036 S.o2      1 <0>         2.4946
      4 O1         -2.6525   -0.3387   -0.9221 O.2       1 <0>        -0.9312
      5 O2         -0.2911   -0.1551   -0.2239 O.2       1 <0>        -0.9318
      6 C3         -1.4741   -2.3809   -0.0043 C.ar      1 <0>        -0.6652
      7 C4         -0.2755   -2.9800    0.3370 C.ar      1 <0>        -0.0076
      8 C5         -0.1641   -4.3568    0.3320 C.ar      1 <0>        -0.1598
      9 C6         -1.2563   -5.1388   -0.0158 C.ar      1 <0>         0.1423
     10 C7         -2.4580   -4.5351   -0.3578 C.ar      1 <0>        -0.1395
     11 C8         -2.5655   -3.1579   -0.3462 C.ar      1 <0>        -0.0049
     12 O3         -1.1492   -6.4933   -0.0219 O.3       1 <0>        -0.2443
     13 C9         -0.9794   -7.1253    1.1693 C.ar      1 <0>         0.1597
     14 C10        -1.0498   -6.4031    2.3478 C.ar      1 <0>        -0.1968
     15 C11        -0.8760   -7.0515    3.5620 C.ar      1 <0>         0.0998
     16 C12        -0.6297   -8.4367    3.5879 C.ar      1 <0>         0.0253
     17 C13        -0.5621   -9.1475    2.3845 C.ar      1 <0>         0.0016
     18 C14        -0.7412   -8.4972    1.1978 C.ar      1 <0>        -0.1301
     19 C15        -0.6736   -9.2699   -0.0943 C.3       1 <0>         0.1711
     20 N1          0.6459   -9.0874   -0.7041 N.am      1 <0>        -0.7267
     21 C16         0.9366   -9.6896   -1.8742 C.2       1 <0>         0.5114
     22 O4          0.1059  -10.3827   -2.4224 O.2       1 <0>        -0.5448
     23 C17         2.2940   -9.5018   -2.5015 C.3       1 <0>        -0.1751
     24 N2         -0.5028   -8.7960    4.8880 N.2       1 <0>        -0.4585
     25 C18        -0.6518   -7.7433    5.6525 C.2       1 <0>         0.3303
     26 N3         -0.8852   -6.6373    4.8785 N.pl3     1 <0>        -0.5771
     27 C19        -0.5791   -7.7477    7.1304 C.ar      1 <0>         0.1774
     28 C20        -0.3287   -8.9411    7.8071 C.ar      1 <0>        -0.1172
     29 C21        -0.2636   -8.9290    9.1898 C.ar      1 <0>        -0.0729
     30 C22        -0.4511   -7.7236    9.8512 C.ar      1 <0>        -0.1558
     31 C23        -0.6958   -6.5770    9.1167 C.ar      1 <0>         0.1068
     32 N4         -0.7474   -6.6144    7.8015 N.ar      1 <0>        -0.4799
     33 H1         -2.6165    1.5621    2.8229 H         1 <0>         0.0863
     34 H2         -1.3425    1.7918    1.6012 H         1 <0>         0.0754
     35 H3         -3.0447    1.6595    1.0979 H         1 <0>         0.0757
     36 H4         -1.3964   -0.5549    2.4005 H         1 <0>         0.1350
     37 H5         -3.0986   -0.6872    1.8972 H         1 <0>         0.1358
     38 H6          0.5744   -2.3708    0.6073 H         1 <0>         0.1506
     39 H7          0.7724   -4.8242    0.5983 H         1 <0>         0.1426
     40 H8         -3.3096   -5.1414   -0.6289 H         1 <0>         0.1469
     41 H9         -3.5018   -2.6876   -0.6080 H         1 <0>         0.1532
     42 H10        -1.2388   -5.3401    2.3223 H         1 <0>         0.1348
     43 H11        -0.3734  -10.2108    2.3949 H         1 <0>         0.1482
     44 H12        -0.8378  -10.3286    0.1065 H         1 <0>         0.0814
     45 H13        -1.4424   -8.9059   -0.7759 H         1 <0>         0.0830
     46 H14         1.3103   -8.5331   -0.2656 H         1 <0>         0.4011
     47 H15         3.0627   -9.8658   -1.8198 H         1 <0>         0.0881
     48 H16         2.3428  -10.0607   -3.4360 H         1 <0>         0.0932
     49 H17         2.4581   -8.4431   -2.7023 H         1 <0>         0.0876
     50 H18        -0.1878   -9.8617    7.2602 H         1 <0>         0.1522
     51 H19        -0.0715   -9.8374    9.7414 H         1 <0>         0.1458
     52 H20        -0.4067   -7.6811   10.9295 H         1 <0>         0.1435
     53 H21        -0.8421   -5.6375    9.6289 H         1 <0>         0.1652
     54 H22        -1.0295   -5.7322    5.1963 H         1 <0>         0.4321
@<TRIPOS>BOND
     1    1    2 1
     2    1   33 1
     3    1   34 1
     4    1   35 1
     5    2    3 1
     6    2   36 1
     7    2   37 1
     8    3    4 2
     9    3    5 2
    10    3    6 1
    11    6   11 ar
    12    6    7 ar
    13    7    8 ar
    14    7   38 1
    15    8    9 ar
    16    8   39 1
    17    9   10 ar
    18    9   12 1
    19   10   11 ar
    20   10   40 1
    21   11   41 1
    22   12   13 1
    23   13   18 ar
    24   13   14 ar
    25   14   15 ar
    26   14   42 1
    27   15   26 1
    28   15   16 ar
    29   16   17 ar
    30   16   24 1
    31   17   18 ar
    32   17   43 1
    33   18   19 1
    34   19   20 1
    35   19   44 1
    36   19   45 1
    37   20   21 am
    38   20   46 1
    39   21   22 2
    40   21   23 1
    41   23   47 1
    42   23   48 1
    43   23   49 1
    44   24   25 2
    45   25   26 1
    46   25   27 1
    47   26   54 1
    48   27   32 ar
    49   27   28 ar
    50   28   29 ar
    51   28   50 1
    52   29   30 ar
    53   29   51 1
    54   30   31 ar
    55   30   52 1
    56   31   32 ar
    57   31   53 1
@<TRIPOS>MOLECULE
CHEMBL606156__1
   54    57     0     0     0
SMALL
USER_CHARGES

@<TRIPOS>ATOM
      1 C1         -2.2963    1.3118    1.8099 C.3       1 <0>        -0.1510
      2 C2         -2.1424   -0.2054    1.6864 C.3       1 <0>        -0.6072
      3 S1         -1.6120   -0.6243    0.0030 S.o2      1 <0>         2.4948
      4 O1         -2.6512   -0.3384   -0.9230 O.2       1 <0>        -0.9326
      5 O2         -0.2899   -0.1558   -0.2244 O.2       1 <0>        -0.9329
      6 C3         -1.4739   -2.3809   -0.0043 C.ar      1 <0>        -0.6650
      7 C4         -0.2757   -2.9804    0.3373 C.ar      1 <0>        -0.0061
      8 C5         -0.1648   -4.3573    0.3324 C.ar      1 <0>        -0.1586
      9 C6         -1.2572   -5.1389   -0.0158 C.ar      1 <0>         0.1433
     10 C7         -2.4585   -4.5347   -0.3582 C.ar      1 <0>        -0.1399
     11 C8         -2.5657   -3.1575   -0.3462 C.ar      1 <0>        -0.0051
     12 O3         -1.1506   -6.4935   -0.0218 O.3       1 <0>        -0.2478
     13 C9         -0.9811   -7.1257    1.1697 C.ar      1 <0>         0.1304
     14 C10        -1.0514   -6.4047    2.3448 C.ar      1 <0>        -0.1473
     15 C11        -0.8768   -7.0566    3.5701 C.ar      1 <0>         0.0967
     16 C12        -0.6313   -8.4416    3.5887 C.ar      1 <0>         0.0290
     17 C13        -0.5643   -9.1508    2.3975 C.ar      1 <0>        -0.0492
     18 C14        -0.7434   -8.4975    1.1974 C.ar      1 <0>        -0.1036
     19 C15        -0.6756   -9.2717   -0.0938 C.3       1 <0>         0.1704
     20 N1          0.6441   -9.0902   -0.7034 N.am      1 <0>        -0.7264
     21 C16         0.9351   -9.6938   -1.8727 C.2       1 <0>         0.5115
     22 O4          0.1044  -10.3873   -2.4204 O.2       1 <0>        -0.5447
     23 C17         2.2927   -9.5071   -2.4998 C.3       1 <0>        -0.1751
     24 N2         -0.5049   -8.7919    4.9194 N.pl3     1 <0>        -0.5734
     25 H1         -0.3306   -9.6806    5.2667 H         1 <0>         0.4334
     26 C18        -0.6707   -7.6503    5.6556 C.2       1 <0>         0.3466
     27 N3         -0.8887   -6.6350    4.8572 N.2       1 <0>        -0.4757
     28 C19        -0.6132   -7.5744    7.1325 C.ar      1 <0>         0.1737
     29 C20        -0.8044   -6.3491    7.7700 C.ar      1 <0>        -0.1156
     30 C21        -0.7481   -6.2943    9.1521 C.ar      1 <0>        -0.0737
     31 C22        -0.5023   -7.4669    9.8520 C.ar      1 <0>        -0.1538
     32 C23        -0.3218   -8.6485    9.1549 C.ar      1 <0>         0.1072
     33 N4         -0.3853   -8.6745    7.8401 N.ar      1 <0>        -0.4776
     34 H2         -2.6151    1.5635    2.8214 H         1 <0>         0.0861
     35 H3         -1.3407    1.7922    1.6000 H         1 <0>         0.0750
     36 H4         -3.0429    1.6606    1.0963 H         1 <0>         0.0751
     37 H5         -1.3959   -0.5542    2.4000 H         1 <0>         0.1362
     38 H6         -3.0981   -0.6858    1.8964 H         1 <0>         0.1363
     39 H7          0.5744   -2.3716    0.6079 H         1 <0>         0.1504
     40 H8          0.7715   -4.8251    0.5990 H         1 <0>         0.1421
     41 H9         -3.3102   -5.1407   -0.6295 H         1 <0>         0.1459
     42 H10        -3.5018   -2.6869   -0.6080 H         1 <0>         0.1525
     43 H11        -1.2400   -5.3416    2.3182 H         1 <0>         0.1409
     44 H12        -0.3755  -10.2141    2.4113 H         1 <0>         0.1411
     45 H13        -0.8401  -10.3301    0.1081 H         1 <0>         0.0797
     46 H14        -1.4440   -8.9083   -0.7761 H         1 <0>         0.0849
     47 H15         1.3085   -8.5356   -0.2653 H         1 <0>         0.4015
     48 H16         3.0611   -9.8706   -1.8175 H         1 <0>         0.0878
     49 H17         2.3417  -10.0671   -3.4336 H         1 <0>         0.0935
     50 H18         2.4572   -8.4487   -2.7017 H         1 <0>         0.0884
     51 H19        -0.9934   -5.4555    7.1938 H         1 <0>         0.1517
     52 H20        -0.8919   -5.3597    9.6739 H         1 <0>         0.1459
     53 H21        -0.4520   -7.4574   10.9308 H         1 <0>         0.1441
     54 H22        -0.1300   -9.5627    9.6970 H         1 <0>         0.1661
@<TRIPOS>BOND
     1    1    2 1
     2    1   34 1
     3    1   35 1
     4    1   36 1
     5    2    3 1
     6    2   37 1
     7    2   38 1
     8    3    4 2
     9    3    5 2
    10    3    6 1
    11    6   11 ar
    12    6    7 ar
    13    7    8 ar
    14    7   39 1
    15    8    9 ar
    16    8   40 1
    17    9   10 ar
    18    9   12 1
    19   10   11 ar
    20   10   41 1
    21   11   42 1
    22   12   13 1
    23   13   18 ar
    24   13   14 ar
    25   14   15 ar
    26   14   43 1
    27   15   27 1
    28   15   16 ar
    29   16   17 ar
    30   16   24 1
    31   17   18 ar
    32   17   44 1
    33   18   19 1
    34   19   20 1
    35   19   45 1
    36   19   46 1
    37   20   21 am
    38   20   47 1
    39   21   22 2
    40   21   23 1
    41   23   48 1
    42   23   49 1
    43   23   50 1
    44   24   25 1
    45   24   26 1
    46   26   27 2
    47   26   28 1
    48   28   33 ar
    49   28   29 ar
    50   29   30 ar
    51   29   51 1
    52   30   31 ar
    53   30   52 1
    54   31   32 ar
    55   31   53 1
    56   32   33 ar
    57   32   54 1
@<TRIPOS>MOLECULE
CHEMBL594633
   60    64     0     0     0
SMALL
USER_CHARGES

@<TRIPOS>ATOM
      1 C1         -2.2968    1.3109    1.8117 C.3       1 <0>        -0.1513
      2 C2         -2.1422   -0.2062    1.6876 C.3       1 <0>        -0.6075
      3 S1         -1.6132   -0.6244    0.0036 S.o2      1 <0>         2.4945
      4 O1         -2.6535   -0.3388   -0.9213 O.2       1 <0>        -0.9315
      5 O2         -0.2916   -0.1551   -0.2250 O.2       1 <0>        -0.9320
      6 C3         -1.4743   -2.3809   -0.0043 C.ar      1 <0>        -0.6651
      7 C4         -0.2754   -2.9799    0.3361 C.ar      1 <0>        -0.0070
      8 C5         -0.1639   -4.3567    0.3311 C.ar      1 <0>        -0.1599
      9 C6         -1.2564   -5.1388   -0.0158 C.ar      1 <0>         0.1434
     10 C7         -2.4583   -4.5351   -0.3569 C.ar      1 <0>        -0.1392
     11 C8         -2.5660   -3.1580   -0.3452 C.ar      1 <0>        -0.0051
     12 O3         -1.1492   -6.4933   -0.0219 O.3       1 <0>        -0.2487
     13 C9         -0.9794   -7.1253    1.1693 C.ar      1 <0>         0.1601
     14 C10        -1.0498   -6.4031    2.3478 C.ar      1 <0>        -0.2001
     15 C11        -0.8760   -7.0515    3.5620 C.ar      1 <0>         0.0974
     16 C12        -0.6297   -8.4367    3.5879 C.ar      1 <0>         0.0260
     17 C13        -0.5621   -9.1475    2.3845 C.ar      1 <0>         0.0085
     18 C14        -0.7412   -8.4972    1.1978 C.ar      1 <0>        -0.1353
     19 C15        -0.6736   -9.2699   -0.0943 C.3       1 <0>         0.2030
     20 N1          0.6459   -9.0874   -0.7041 N.am      1 <0>        -0.6268
     21 C16         1.0078   -8.0198   -1.6484 C.3       1 <0>         0.0961
     22 C17         2.4903   -8.2952   -1.9666 C.3       1 <0>         0.0927
     23 N2          2.8062   -9.4887   -1.1677 N.am      1 <0>        -0.6399
     24 C18         1.7159   -9.8629   -0.4855 C.2       1 <0>         0.6985
     25 O4          1.6979  -10.8222    0.2614 O.2       1 <0>        -0.5806
     26 C19         4.1084  -10.1583   -1.1205 C.3       1 <0>         0.1216
     27 N3         -0.5028   -8.7960    4.8880 N.2       1 <0>        -0.4565
     28 C20        -0.6518   -7.7433    5.6525 C.2       1 <0>         0.3259
     29 N4         -0.8852   -6.6373    4.8785 N.pl3     1 <0>        -0.5780
     30 C21        -0.5791   -7.7477    7.1304 C.ar      1 <0>         0.1796
     31 C22        -0.3287   -8.9411    7.8071 C.ar      1 <0>        -0.1177
     32 C23        -0.2636   -8.9290    9.1898 C.ar      1 <0>        -0.0728
     33 C24        -0.4511   -7.7236    9.8512 C.ar      1 <0>        -0.1571
     34 C25        -0.6958   -6.5770    9.1167 C.ar      1 <0>         0.1062
     35 N5         -0.7474   -6.6144    7.8015 N.ar      1 <0>        -0.4805
     36 H1         -2.6146    1.5622    2.8236 H         1 <0>         0.0863
     37 H2         -1.3416    1.7919    1.6009 H         1 <0>         0.0754
     38 H3         -3.0442    1.6595    1.0990 H         1 <0>         0.0757
     39 H4         -1.3948   -0.5547    2.4004 H         1 <0>         0.1350
     40 H5         -3.0974   -0.6872    1.8984 H         1 <0>         0.1358
     41 H6          0.5747   -2.3707    0.6056 H         1 <0>         0.1499
     42 H7          0.7728   -4.8241    0.5967 H         1 <0>         0.1411
     43 H8         -3.3102   -5.1416   -0.6272 H         1 <0>         0.1467
     44 H9         -3.5025   -2.6878   -0.6063 H         1 <0>         0.1527
     45 H10        -1.2388   -5.3401    2.3223 H         1 <0>         0.1324
     46 H11        -0.3734  -10.2108    2.3949 H         1 <0>         0.1489
     47 H12        -0.8378  -10.3286    0.1065 H         1 <0>         0.0983
     48 H13        -1.4424   -8.9059   -0.7759 H         1 <0>         0.0960
     49 H14         0.4033   -8.0880   -2.5529 H         1 <0>         0.0833
     50 H15         0.8919   -7.0413   -1.1824 H         1 <0>         0.0806
     51 H16         2.6219   -8.5001   -3.0290 H         1 <0>         0.0825
     52 H17         3.1105   -7.4534   -1.6585 H         1 <0>         0.0792
     53 H18         4.7115   -9.7242   -0.3230 H         1 <0>         0.0536
     54 H19         3.9635  -11.2215   -0.9288 H         1 <0>         0.0774
     55 H20         4.6191  -10.0274   -2.0745 H         1 <0>         0.0721
     56 H21        -0.1878   -9.8617    7.2602 H         1 <0>         0.1524
     57 H22        -0.0715   -9.8374    9.7414 H         1 <0>         0.1455
     58 H23        -0.4067   -7.6811   10.9295 H         1 <0>         0.1430
     59 H24        -0.8421   -5.6375    9.6289 H         1 <0>         0.1646
     60 H25        -1.0295   -5.7322    5.1963 H         1 <0>         0.4308
@<TRIPOS>BOND
     1    1    2 1
     2    1   36 1
     3    1   37 1
     4    1   38 1
     5    2    3 1
     6    2   39 1
     7    2   40 1
     8    3    4 2
     9    3    5 2
    10    3    6 1
    11    6   11 ar
    12    6    7 ar
    13    7    8 ar
    14    7   41 1
    15    8    9 ar
    16    8   42 1
    17    9   10 ar
    18    9   12 1
    19   10   11 ar
    20   10   43 1
    21   11   44 1
    22   12   13 1
    23   13   18 ar
    24   13   14 ar
    25   14   15 ar
    26   14   45 1
    27   15   29 1
    28   15   16 ar
    29   16   17 ar
    30   16   27 1
    31   17   18 ar
    32   17   46 1
    33   18   19 1
    34   19   20 1
    35   19   47 1
    36   19   48 1
    37   20   24 am
    38   20   21 1
    39   21   22 1
    40   21   49 1
    41   21   50 1
    42   22   23 1
    43   22   51 1
    44   22   52 1
    45   23   24 am
    46   23   26 1
    47   24   25 2
    48   26   53 1
    49   26   54 1
    50   26   55 1
    51   27   28 2
    52   28   29 1
    53   28   30 1
    54   29   60 1
    55   30   35 ar
    56   30   31 ar
    57   31   32 ar
    58   31   56 1
    59   32   33 ar
    60   32   57 1
    61   33   34 ar
    62   33   58 1
    63   34   35 ar
    64   34   59 1
@<TRIPOS>MOLECULE
CHEMBL594633__1
   60    64     0     0     0
SMALL
USER_CHARGES

@<TRIPOS>ATOM
      1 C1         -2.2953    1.3119    1.8104 C.3       1 <0>        -0.1510
      2 C2         -2.1414   -0.2054    1.6868 C.3       1 <0>        -0.6075
      3 S1         -1.6123   -0.6244    0.0031 S.o2      1 <0>         2.4946
      4 O1         -2.6522   -0.3386   -0.9222 O.2       1 <0>        -0.9329
      5 O2         -0.2904   -0.1557   -0.2254 O.2       1 <0>        -0.9331
      6 C3         -1.4741   -2.3809   -0.0043 C.ar      1 <0>        -0.6650
      7 C4         -0.2756   -2.9803    0.3364 C.ar      1 <0>        -0.0055
      8 C5         -0.1646   -4.3572    0.3315 C.ar      1 <0>        -0.1589
      9 C6         -1.2572   -5.1389   -0.0158 C.ar      1 <0>         0.1444
     10 C7         -2.4589   -4.5348   -0.3573 C.ar      1 <0>        -0.1396
     11 C8         -2.5661   -3.1576   -0.3452 C.ar      1 <0>        -0.0053
     12 O3         -1.1506   -6.4935   -0.0218 O.3       1 <0>        -0.2522
     13 C9         -0.9811   -7.1257    1.1697 C.ar      1 <0>         0.1297
     14 C10        -1.0514   -6.4047    2.3448 C.ar      1 <0>        -0.1501
     15 C11        -0.8768   -7.0566    3.5701 C.ar      1 <0>         0.0931
     16 C12        -0.6313   -8.4416    3.5887 C.ar      1 <0>         0.0306
     17 C13        -0.5643   -9.1508    2.3975 C.ar      1 <0>        -0.0429
     18 C14        -0.7434   -8.4975    1.1974 C.ar      1 <0>        -0.1074
     19 C15        -0.6756   -9.2717   -0.0938 C.3       1 <0>         0.2021
     20 N1          0.6441   -9.0902   -0.7034 N.am      1 <0>        -0.6261
     21 C16         1.0067   -8.0238   -1.6488 C.3       1 <0>         0.0957
     22 C17         2.4892   -8.3000   -1.9661 C.3       1 <0>         0.0924
     23 N2          2.8045   -9.4927   -1.1658 N.am      1 <0>        -0.6394
     24 C18         1.7139   -9.8659   -0.4836 C.2       1 <0>         0.6992
     25 O4          1.6954  -10.8243    0.2644 O.2       1 <0>        -0.5842
     26 C19         4.1065  -10.1626   -1.1174 C.3       1 <0>         0.1214
     27 N3         -0.5049   -8.7919    4.9194 N.pl3     1 <0>        -0.5726
     28 H1         -0.3306   -9.6806    5.2667 H         1 <0>         0.4331
     29 C20        -0.6707   -7.6503    5.6556 C.2       1 <0>         0.3422
     30 N4         -0.8887   -6.6350    4.8572 N.2       1 <0>        -0.4762
     31 C21        -0.6132   -7.5744    7.1325 C.ar      1 <0>         0.1762
     32 C22        -0.8044   -6.3491    7.7700 C.ar      1 <0>        -0.1167
     33 C23        -0.7481   -6.2943    9.1521 C.ar      1 <0>        -0.0739
     34 C24        -0.5023   -7.4669    9.8520 C.ar      1 <0>        -0.1552
     35 C25        -0.3218   -8.6485    9.1549 C.ar      1 <0>         0.1073
     36 N5         -0.3853   -8.6745    7.8401 N.ar      1 <0>        -0.4776
     37 H2         -2.6133    1.5636    2.8221 H         1 <0>         0.0861
     38 H3         -1.3399    1.7923    1.5996 H         1 <0>         0.0749
     39 H4         -3.0424    1.6605    1.0974 H         1 <0>         0.0751
     40 H5         -1.3943   -0.5540    2.3998 H         1 <0>         0.1362
     41 H6         -3.0969   -0.6858    1.8976 H         1 <0>         0.1363
     42 H7          0.5746   -2.3715    0.6063 H         1 <0>         0.1497
     43 H8          0.7719   -4.8249    0.5973 H         1 <0>         0.1405
     44 H9         -3.3108   -5.1409   -0.6279 H         1 <0>         0.1458
     45 H10        -3.5025   -2.6871   -0.6063 H         1 <0>         0.1521
     46 H11        -1.2400   -5.3416    2.3182 H         1 <0>         0.1385
     47 H12        -0.3755  -10.2141    2.4113 H         1 <0>         0.1419
     48 H13        -0.8401  -10.3301    0.1081 H         1 <0>         0.0968
     49 H14        -1.4440   -8.9083   -0.7761 H         1 <0>         0.0980
     50 H15         0.4025   -8.0928   -2.5534 H         1 <0>         0.0839
     51 H16         0.8908   -7.0447   -1.1839 H         1 <0>         0.0827
     52 H17         2.6211   -8.5061   -3.0283 H         1 <0>         0.0829
     53 H18         3.1095   -7.4580   -1.6588 H         1 <0>         0.0801
     54 H19         4.7094   -9.7278   -0.3202 H         1 <0>         0.0536
     55 H20         3.9613  -11.2255   -0.9246 H         1 <0>         0.0769
     56 H21         4.6175  -10.0328   -2.0715 H         1 <0>         0.0727
     57 H22        -0.9934   -5.4555    7.1938 H         1 <0>         0.1513
     58 H23        -0.8919   -5.3597    9.6739 H         1 <0>         0.1455
     59 H24        -0.4520   -7.4574   10.9308 H         1 <0>         0.1436
     60 H25        -0.1300   -9.5627    9.6970 H         1 <0>         0.1658
@<TRIPOS>BOND
     1    1    2 1
     2    1   37 1
     3    1   38 1
     4    1   39 1
     5    2    3 1
     6    2   40 1
     7    2   41 1
     8    3    4 2
     9    3    5 2
    10    3    6 1
    11    6   11 ar
    12    6    7 ar
    13    7    8 ar
    14    7   42 1
    15    8    9 ar
    16    8   43 1
    17    9   10 ar
    18    9   12 1
    19   10   11 ar
    20   10   44 1
    21   11   45 1
    22   12   13 1
    23   13   18 ar
    24   13   14 ar
    25   14   15 ar
    26   14   46 1
    27   15   30 1
    28   15   16 ar
    29   16   17 ar
    30   16   27 1
    31   17   18 ar
    32   17   47 1
    33   18   19 1
    34   19   20 1
    35   19   48 1
    36   19   49 1
    37   20   24 am
    38   20   21 1
    39   21   22 1
    40   21   50 1
    41   21   51 1
    42   22   23 1
    43   22   52 1
    44   22   53 1
    45   23   24 am
    46   23   26 1
    47   24   25 2
    48   26   54 1
    49   26   55 1
    50   26   56 1
    51   27   28 1
    52   27   29 1
    53   29   30 2
    54   29   31 1
    55   31   36 ar
    56   31   32 ar
    57   32   33 ar
    58   32   57 1
    59   33   34 ar
    60   33   58 1
    61   34   35 ar
    62   34   59 1
    63   35   36 ar
    64   35   60 1
@<TRIPOS>MOLECULE
CHEMBL606370
   60    63     0     0     0
SMALL
USER_CHARGES

@<TRIPOS>ATOM
      1 C1          2.6848    1.3825    1.0847 C.3       1 <0>        -0.1513
      2 C2          2.5383   -0.1391    1.0181 C.3       1 <0>        -0.6074
      3 S1          0.8261   -0.5990    1.4021 S.o2      1 <0>         2.4946
      4 O1          0.5369   -0.3157    2.7642 O.2       1 <0>        -0.9316
      5 O2         -0.0433   -0.1550    0.3694 O.2       1 <0>        -0.9323
      6 C3          0.7940   -2.3573    1.2919 C.ar      1 <0>        -0.6661
      7 C4          0.5055   -2.9680    0.0854 C.ar      1 <0>        -0.0078
      8 C5          0.4801   -4.3462   -0.0039 C.ar      1 <0>        -0.1605
      9 C6          0.7444   -5.1179    1.1187 C.ar      1 <0>         0.1440
     10 C7          1.0336   -4.5025    2.3283 C.ar      1 <0>        -0.1403
     11 C8          1.0629   -3.1239    2.4108 C.ar      1 <0>        -0.0052
     12 O3          0.7196   -6.4738    1.0337 O.3       1 <0>        -0.2464
     13 C9          1.6820   -7.0844    0.2934 C.ar      1 <0>         0.1508
     14 C10         2.7193   -6.3378   -0.2374 C.ar      1 <0>        -0.1948
     15 C11         3.7001   -6.9644   -0.9927 C.ar      1 <0>         0.0910
     16 C12         3.6342   -8.3525   -1.2142 C.ar      1 <0>         0.0298
     17 C13         2.5763   -9.0881   -0.6686 C.ar      1 <0>        -0.0180
     18 C14         1.6220   -8.4590    0.0776 C.ar      1 <0>        -0.1019
     19 C15         0.4889   -9.2583    0.6677 C.3       1 <0>        -0.0557
     20 C16        -0.7174   -9.2034   -0.2717 C.3       1 <0>        -0.1322
     21 C17        -1.8505  -10.0028    0.3185 C.2       1 <0>         0.5132
     22 O4         -1.7072  -10.5614    1.3854 O.2       1 <0>        -0.5367
     23 N1         -3.0230  -10.0969   -0.3394 N.am      1 <0>        -0.6257
     24 C18        -4.1245  -10.8740    0.2344 C.3       1 <0>         0.0830
     25 C19        -3.1961   -9.4222   -1.6282 C.3       1 <0>         0.0783
     26 N2          4.7055   -8.6877   -1.9728 N.2       1 <0>        -0.4603
     27 C20         5.4154   -7.6176   -2.2296 C.2       1 <0>         0.3266
     28 N3          4.8341   -6.5238   -1.6444 N.pl3     1 <0>        -0.5776
     29 C21         6.6588   -7.5936   -3.0315 C.ar      1 <0>         0.1794
     30 C22         7.1495   -8.7770   -3.5825 C.ar      1 <0>        -0.1181
     31 C23         8.3138   -8.7383   -4.3302 C.ar      1 <0>        -0.0731
     32 C24         8.9500   -7.5172   -4.5027 C.ar      1 <0>        -0.1571
     33 C25         8.4075   -6.3818   -3.9275 C.ar      1 <0>         0.1065
     34 N4          7.2955   -6.4447   -3.2251 N.ar      1 <0>        -0.4803
     35 H1          2.4317    1.7283    2.0869 H         1 <0>         0.0756
     36 H2          3.7137    1.6588    0.8540 H         1 <0>         0.0862
     37 H3          2.0135    1.8441    0.3606 H         1 <0>         0.0753
     38 H4          2.7914   -0.4849    0.0159 H         1 <0>         0.1350
     39 H5          3.2096   -0.6008    1.7422 H         1 <0>         0.1358
     40 H6          0.2995   -2.3669   -0.7879 H         1 <0>         0.1501
     41 H7          0.2543   -4.8227   -0.9464 H         1 <0>         0.1426
     42 H8          1.2398   -5.1008    3.2034 H         1 <0>         0.1468
     43 H9          1.2923   -2.6444    3.3509 H         1 <0>         0.1527
     44 H10         2.7651   -5.2727   -0.0648 H         1 <0>         0.1325
     45 H11         2.5177  -10.1538   -0.8334 H         1 <0>         0.1454
     46 H12         0.8031  -10.2942    0.7956 H         1 <0>         0.0852
     47 H13         0.2147   -8.8397    1.6361 H         1 <0>         0.0877
     48 H14        -1.0316   -8.1675   -0.3995 H         1 <0>         0.0948
     49 H15        -0.4432   -9.6221   -1.2400 H         1 <0>         0.0953
     50 H16        -4.7373  -10.2270    0.8619 H         1 <0>         0.0546
     51 H17        -4.7355  -11.2859   -0.5688 H         1 <0>         0.0697
     52 H18        -3.7201  -11.6874    0.8369 H         1 <0>         0.0771
     53 H19        -2.4637   -9.8040   -2.3394 H         1 <0>         0.0632
     54 H20        -4.2013   -9.6110   -2.0050 H         1 <0>         0.0789
     55 H21        -3.0521   -8.3495   -1.4989 H         1 <0>         0.0623
     56 H22         6.6287   -9.7104   -3.4278 H         1 <0>         0.1521
     57 H23         8.7182   -9.6384   -4.7691 H         1 <0>         0.1453
     58 H24         9.8603   -7.4538   -5.0803 H         1 <0>         0.1429
     59 H25         8.9005   -5.4301   -4.0602 H         1 <0>         0.1647
     60 H26         5.1587   -5.6105   -1.6814 H         1 <0>         0.4308
@<TRIPOS>BOND
     1    1    2 1
     2    1   35 1
     3    1   36 1
     4    1   37 1
     5    2    3 1
     6    2   38 1
     7    2   39 1
     8    3    4 2
     9    3    5 2
    10    3    6 1
    11    6   11 ar
    12    6    7 ar
    13    7    8 ar
    14    7   40 1
    15    8    9 ar
    16    8   41 1
    17    9   10 ar
    18    9   12 1
    19   10   11 ar
    20   10   42 1
    21   11   43 1
    22   12   13 1
    23   13   18 ar
    24   13   14 ar
    25   14   15 ar
    26   14   44 1
    27   15   28 1
    28   15   16 ar
    29   16   17 ar
    30   16   26 1
    31   17   18 ar
    32   17   45 1
    33   18   19 1
    34   19   20 1
    35   19   46 1
    36   19   47 1
    37   20   21 1
    38   20   48 1
    39   20   49 1
    40   21   22 2
    41   21   23 am
    42   23   24 1
    43   23   25 1
    44   24   50 1
    45   24   51 1
    46   24   52 1
    47   25   53 1
    48   25   54 1
    49   25   55 1
    50   26   27 2
    51   27   28 1
    52   27   29 1
    53   28   60 1
    54   29   34 ar
    55   29   30 ar
    56   30   31 ar
    57   30   56 1
    58   31   32 ar
    59   31   57 1
    60   32   33 ar
    61   32   58 1
    62   33   34 ar
    63   33   59 1
@<TRIPOS>MOLECULE
CHEMBL606370__1
   60    63     0     0     0
SMALL
USER_CHARGES

@<TRIPOS>ATOM
      1 C1         -2.2963    1.3118    1.8099 C.3       1 <0>        -0.1509
      2 C2         -2.1424   -0.2054    1.6864 C.3       1 <0>        -0.6074
      3 S1         -1.6120   -0.6243    0.0030 S.o2      1 <0>         2.4949
      4 O1         -2.6512   -0.3384   -0.9230 O.2       1 <0>        -0.9330
      5 O2         -0.2899   -0.1558   -0.2244 O.2       1 <0>        -0.9334
      6 C3         -1.4739   -2.3809   -0.0043 C.ar      1 <0>        -0.6659
      7 C4         -0.2757   -2.9804    0.3373 C.ar      1 <0>        -0.0063
      8 C5         -0.1648   -4.3573    0.3324 C.ar      1 <0>        -0.1594
      9 C6         -1.2572   -5.1389   -0.0158 C.ar      1 <0>         0.1450
     10 C7         -2.4585   -4.5347   -0.3581 C.ar      1 <0>        -0.1406
     11 C8         -2.5657   -3.1575   -0.3461 C.ar      1 <0>        -0.0053
     12 O3         -1.1506   -6.4935   -0.0218 O.3       1 <0>        -0.2500
     13 C9         -0.9811   -7.1257    1.1697 C.ar      1 <0>         0.1196
     14 C10        -1.0514   -6.4047    2.3448 C.ar      1 <0>        -0.1438
     15 C11        -0.8768   -7.0566    3.5701 C.ar      1 <0>         0.0857
     16 C12        -0.6313   -8.4416    3.5887 C.ar      1 <0>         0.0355
     17 C13        -0.5643   -9.1508    2.3975 C.ar      1 <0>        -0.0699
     18 C14        -0.7434   -8.4975    1.1974 C.ar      1 <0>        -0.0731
     19 C15        -0.6756   -9.2717   -0.0938 C.3       1 <0>        -0.0570
     20 C16         0.7402   -9.1843   -0.6672 C.3       1 <0>        -0.1324
     21 C17         0.8079   -9.9585   -1.9584 C.2       1 <0>         0.5129
     22 O4         -0.1790  -10.5244   -2.3786 O.2       1 <0>        -0.5367
     23 N1          1.9653  -10.0220   -2.6461 N.am      1 <0>        -0.6252
     24 C18         2.0311  -10.7746   -3.9013 C.3       1 <0>         0.0831
     25 C19         3.1574   -9.3384   -2.1385 C.3       1 <0>         0.0757
     26 N2         -0.5049   -8.7919    4.9194 N.pl3     1 <0>        -0.5746
     27 H1         -0.3306   -9.6806    5.2667 H         1 <0>         0.4323
     28 C20        -0.6707   -7.6503    5.6556 C.2       1 <0>         0.3393
     29 N3         -0.8887   -6.6350    4.8572 N.2       1 <0>        -0.4742
     30 C21        -0.6132   -7.5744    7.1325 C.ar      1 <0>         0.1766
     31 C22        -0.8044   -6.3491    7.7700 C.ar      1 <0>        -0.1171
     32 C23        -0.7481   -6.2943    9.1521 C.ar      1 <0>        -0.0737
     33 C24        -0.5023   -7.4669    9.8520 C.ar      1 <0>        -0.1556
     34 C25        -0.3218   -8.6485    9.1549 C.ar      1 <0>         0.1070
     35 N4         -0.3853   -8.6745    7.8401 N.ar      1 <0>        -0.4783
     36 H2         -2.6150    1.5635    2.8214 H         1 <0>         0.0860
     37 H3         -1.3407    1.7922    1.5999 H         1 <0>         0.0749
     38 H4         -3.0428    1.6606    1.0964 H         1 <0>         0.0750
     39 H5         -1.3958   -0.5542    2.4000 H         1 <0>         0.1363
     40 H6         -3.0980   -0.6858    1.8964 H         1 <0>         0.1363
     41 H7          0.5744   -2.3716    0.6078 H         1 <0>         0.1500
     42 H8          0.7715   -4.8251    0.5989 H         1 <0>         0.1420
     43 H9         -3.3103   -5.1407   -0.6295 H         1 <0>         0.1459
     44 H10        -3.5018   -2.6869   -0.6079 H         1 <0>         0.1521
     45 H11        -1.2400   -5.3416    2.3182 H         1 <0>         0.1388
     46 H12        -0.3755  -10.2141    2.4113 H         1 <0>         0.1385
     47 H13        -0.9275  -10.3153    0.0947 H         1 <0>         0.0842
     48 H14        -1.3834   -8.8503   -0.8077 H         1 <0>         0.0902
     49 H15         0.9921   -8.1407   -0.8556 H         1 <0>         0.0969
     50 H16         1.4479   -9.6057    0.0467 H         1 <0>         0.0943
     51 H17         1.7843  -10.1154   -4.7335 H         1 <0>         0.0554
     52 H18         3.0384  -11.1686   -4.0363 H         1 <0>         0.0698
     53 H19         1.3197  -11.5997   -3.8679 H         1 <0>         0.0773
     54 H20         3.7163  -10.0146   -1.4916 H         1 <0>         0.0586
     55 H21         3.7858   -9.0341   -2.9755 H         1 <0>         0.0740
     56 H22         2.8572   -8.4577   -1.5706 H         1 <0>         0.0740
     57 H23        -0.9934   -5.4555    7.1938 H         1 <0>         0.1514
     58 H24        -0.8919   -5.3597    9.6739 H         1 <0>         0.1454
     59 H25        -0.4520   -7.4574   10.9308 H         1 <0>         0.1434
     60 H26        -0.1300   -9.5627    9.6970 H         1 <0>         0.1655
@<TRIPOS>BOND
     1    1    2 1
     2    1   36 1
     3    1   37 1
     4    1   38 1
     5    2    3 1
     6    2   39 1
     7    2   40 1
     8    3    4 2
     9    3    5 2
    10    3    6 1
    11    6   11 ar
    12    6    7 ar
    13    7    8 ar
    14    7   41 1
    15    8    9 ar
    16    8   42 1
    17    9   10 ar
    18    9   12 1
    19   10   11 ar
    20   10   43 1
    21   11   44 1
    22   12   13 1
    23   13   18 ar
    24   13   14 ar
    25   14   15 ar
    26   14   45 1
    27   15   29 1
    28   15   16 ar
    29   16   17 ar
    30   16   26 1
    31   17   18 ar
    32   17   46 1
    33   18   19 1
    34   19   20 1
    35   19   47 1
    36   19   48 1
    37   20   21 1
    38   20   49 1
    39   20   50 1
    40   21   22 2
    41   21   23 am
    42   23   24 1
    43   23   25 1
    44   24   51 1
    45   24   52 1
    46   24   53 1
    47   25   54 1
    48   25   55 1
    49   25   56 1
    50   26   27 1
    51   26   28 1
    52   28   29 2
    53   28   30 1
    54   30   35 ar
    55   30   31 ar
    56   31   32 ar
    57   31   57 1
    58   32   33 ar
    59   32   58 1
    60   33   34 ar
    61   33   59 1
    62   34   35 ar
    63   34   60 1
@<TRIPOS>MOLECULE
CHEMBL371462
   41    43     0     0     0
SMALL
USER_CHARGES

@<TRIPOS>ATOM
      1 C1         -0.0159    1.3776    0.0209 C.ar      1 <0>        -0.1122
      2 C2          1.1718    2.0856    0.0154 C.ar      1 <0>        -0.1061
      3 C3          2.3782    1.4118    0.0008 C.ar      1 <0>        -0.1092
      4 C4          2.3974    0.0282   -0.0079 C.ar      1 <0>        -0.0308
      5 C5          1.2089   -0.6796   -0.0019 C.ar      1 <0>        -0.0835
      6 C6          0.0028   -0.0044    0.0122 C.ar      1 <0>        -0.0843
      7 C7          1.2291   -2.1864   -0.0118 C.3       1 <0>         0.1016
      8 O1         -0.1117   -2.6808   -0.0031 O.3       1 <0>        -0.3074
      9 C8         -0.2717   -4.0304   -0.0104 C.ar      1 <0>         0.1242
     10 C9          0.8409   -4.8611   -0.0199 C.ar      1 <0>        -0.1865
     11 C10         0.6844   -6.2347   -0.0274 C.ar      1 <0>        -0.0842
     12 C11        -0.5792   -6.7895   -0.0258 C.ar      1 <0>        -0.1246
     13 C12        -1.7037   -5.9626   -0.0163 C.ar      1 <0>        -0.0870
     14 C13        -1.5440   -4.5763   -0.0026 C.ar      1 <0>        -0.0893
     15 C14        -3.0587   -6.5532   -0.0146 C.2       1 <0>         0.5435
     16 O2         -4.0363   -5.8311   -0.0063 O.2       1 <0>        -0.4589
     17 N1         -3.2101   -7.8924   -0.0223 N.am      1 <0>        -0.6527
     18 C15        -4.4771   -8.4480    0.0859 C.ar      1 <0>         0.3354
     19 C16        -4.6140   -9.8313    0.1836 C.ar      1 <0>        -0.2174
     20 C17        -5.8648  -10.3767    0.2903 C.ar      1 <0>        -0.0208
     21 C18        -6.9731   -9.5139    0.2974 C.ar      1 <0>        -0.2058
     22 C19        -6.7603   -8.1366    0.1957 C.ar      1 <0>         0.1549
     23 N2         -5.5393   -7.6547    0.1003 N.ar      1 <0>        -0.4859
     24 C20        -8.3387  -10.0527    0.4097 C.2       1 <0>         0.5268
     25 O3         -8.5146  -11.2602    0.4978 O.co2     1 <0>        -0.6876
     26 O4         -9.2975   -9.2930    0.4149 O.co2     1 <0>        -0.6837
     27 Cl1         3.9126   -0.8190   -0.0268 Cl        1 <0>        -0.0677
     28 H1         -0.9584    1.9047    0.0365 H         1 <0>         0.1332
     29 H2          1.1566    3.1655    0.0222 H         1 <0>         0.1338
     30 H3          3.3057    1.9649   -0.0043 H         1 <0>         0.1361
     31 H4         -0.9252   -0.5569    0.0165 H         1 <0>         0.1445
     32 H5          1.7398   -2.5371   -0.9087 H         1 <0>         0.0822
     33 H6          1.7556   -2.5486    0.8712 H         1 <0>         0.0822
     34 H7          1.8323   -4.4326   -0.0219 H         1 <0>         0.1318
     35 H8          1.5537   -6.8755   -0.0348 H         1 <0>         0.1332
     36 H9         -0.6979   -7.8630   -0.0324 H         1 <0>         0.1292
     37 H10        -2.4101   -3.9313    0.0096 H         1 <0>         0.1472
     38 H11        -2.4335   -8.4678   -0.1036 H         1 <0>         0.4119
     39 H12        -3.7412  -10.4672    0.1749 H         1 <0>         0.1269
     40 H13        -5.9966  -11.4459    0.3670 H         1 <0>         0.1406
     41 H14        -7.6039   -7.4622    0.1996 H         1 <0>         0.1659
@<TRIPOS>BOND
     1    1    6 ar
     2    1    2 ar
     3    1   28 1
     4    2    3 ar
     5    2   29 1
     6    3    4 ar
     7    3   30 1
     8    4    5 ar
     9    4   27 1
    10    5    6 ar
    11    5    7 1
    12    6   31 1
    13    7    8 1
    14    7   32 1
    15    7   33 1
    16    8    9 1
    17    9   14 ar
    18    9   10 ar
    19   10   11 ar
    20   10   34 1
    21   11   12 ar
    22   11   35 1
    23   12   13 ar
    24   12   36 1
    25   13   14 ar
    26   13   15 1
    27   14   37 1
    28   15   16 2
    29   15   17 am
    30   17   18 1
    31   17   38 1
    32   18   23 ar
    33   18   19 ar
    34   19   20 ar
    35   19   39 1
    36   20   21 ar
    37   20   40 1
    38   21   22 ar
    39   21   24 1
    40   22   23 ar
    41   22   41 1
    42   24   25 2
    43   24   26 1
@<TRIPOS>MOLECULE
CHEMBL575278
   42    45     0     0     0
SMALL
USER_CHARGES

@<TRIPOS>ATOM
      1 C1          1.6666    1.3199    0.0288 C.3       1 <0>         0.1041
      2 N1          1.3922   -0.1191    0.0174 N.pl3     1 <0>        -0.3695
      3 C2          1.2507   -0.8906   -1.0810 C.2       1 <0>         0.0604
      4 C3          1.0072   -2.1560   -0.6707 C.2       1 <0>        -0.2618
      5 C4          0.9994   -2.1596    0.7336 C.2       1 <0>         0.2979
      6 N2          1.2369   -0.9361    1.1446 N.2       1 <0>        -0.3266
      7 N3          0.7825   -3.2750    1.5522 N.pl3     1 <0>        -0.5995
      8 C5          0.5496   -4.5114    0.9860 C.ar      1 <0>         0.4818
      9 C6          0.3220   -5.6514    1.7958 C.ar      1 <0>        -0.1754
     10 C7          0.3216   -5.5811    3.1929 C.ar      1 <0>        -0.0688
     11 C8          0.0936   -6.7253    3.9271 C.ar      1 <0>         0.0909
     12 C9         -0.1355   -7.9465    3.2887 C.ar      1 <0>        -0.0719
     13 C10        -0.1390   -8.0373    1.9297 C.ar      1 <0>        -0.0896
     14 C11         0.0891   -6.8922    1.1543 C.ar      1 <0>         0.1932
     15 N4          0.0939   -6.9344   -0.1870 N.ar      1 <0>        -0.5416
     16 C12         0.3104   -5.8462   -0.8863 C.ar      1 <0>         0.3468
     17 N5          0.5272   -4.6641   -0.3312 N.ar      1 <0>        -0.5733
     18 O1          0.0921   -6.6647    5.2849 O.3       1 <0>        -0.2461
     19 C13         1.1831   -7.1289    5.9443 C.ar      1 <0>         0.3147
     20 C14         1.1761   -7.1843    7.3326 C.ar      1 <0>        -0.1532
     21 C15         2.2951   -7.6602    7.9930 C.ar      1 <0>        -0.0212
     22 C16         3.3871   -8.0660    7.2377 C.ar      1 <0>        -0.2020
     23 C17         3.3245   -7.9832    5.8611 C.ar      1 <0>         0.1363
     24 N6          2.2413   -7.5295    5.2593 N.ar      1 <0>        -0.5235
     25 C18        -0.0338   -6.7317    8.1088 C.3       1 <0>         0.1295
     26 O2          0.2117   -6.8888    9.5077 O.3       1 <0>        -0.5719
     27 H1          2.7441    1.4843    0.0317 H         1 <0>         0.0748
     28 H2          1.2313    1.7798   -0.8583 H         1 <0>         0.0902
     29 H3          1.2286    1.7663    0.9216 H         1 <0>         0.0884
     30 H4          1.3191   -0.5564   -2.1057 H         1 <0>         0.1788
     31 H5          0.8469   -3.0118   -1.3097 H         1 <0>         0.1858
     32 H6          0.7960   -3.1782    2.5172 H         1 <0>         0.4254
     33 H7          0.4985   -4.6395    3.6915 H         1 <0>         0.1334
     34 H8         -0.3122   -8.8318    3.8815 H         1 <0>         0.1375
     35 H9         -0.3170   -8.9889    1.4509 H         1 <0>         0.1495
     36 H10         0.3075   -5.9168   -1.9640 H         1 <0>         0.2012
     37 H11         2.3186   -7.7145    9.0714 H         1 <0>         0.1526
     38 H12         4.2761   -8.4420    7.7220 H         1 <0>         0.1418
     39 H13         4.1714   -8.2972    5.2690 H         1 <0>         0.1626
     40 H14        -0.2339   -5.6827    7.8905 H         1 <0>         0.0645
     41 H15        -0.8959   -7.3335    7.8213 H         1 <0>         0.0651
     42 H16        -0.5267   -6.6162   10.0696 H         1 <0>         0.3885
@<TRIPOS>BOND
     1    1    2 1
     2    1   27 1
     3    1   28 1
     4    1   29 1
     5    2    6 1
     6    2    3 1
     7    3    4 2
     8    3   30 1
     9    4    5 1
    10    4   31 1
    11    5    6 2
    12    5    7 1
    13    7    8 1
    14    7   32 1
    15    8   17 ar
    16    8    9 ar
    17    9   14 ar
    18    9   10 ar
    19   10   11 ar
    20   10   33 1
    21   11   12 ar
    22   11   18 1
    23   12   13 ar
    24   12   34 1
    25   13   14 ar
    26   13   35 1
    27   14   15 ar
    28   15   16 ar
    29   16   17 ar
    30   16   36 1
    31   18   19 1
    32   19   24 ar
    33   19   20 ar
    34   20   21 ar
    35   20   25 1
    36   21   22 ar
    37   21   37 1
    38   22   23 ar
    39   22   38 1
    40   23   24 ar
    41   23   39 1
    42   25   26 1
    43   25   40 1
    44   25   41 1
    45   26   42 1
@<TRIPOS>MOLECULE
CHEMBL489514
   37    39     0     0     0
SMALL
USER_CHARGES

@<TRIPOS>ATOM
      1 C1         -0.1540    1.5002    0.0136 C.3       1 <0>        -0.0800
      2 C2         -0.0957   -0.0056    0.0047 C.2       1 <0>         0.0863
      3 C3         -0.0608   -0.7059   -1.1556 C.2       1 <0>        -0.2830
      4 S1          0.0003   -2.3783   -0.5333 S.3       1 <0>         0.2164
      5 C4         -0.0245   -2.0161    1.1101 C.2       1 <0>         0.2478
      6 N1         -0.0707   -0.7014    1.1264 N.2       1 <0>        -0.5529
      7 N2          0.0027   -2.8923    2.1875 N.am      1 <0>        -0.6067
      8 C5          0.0565   -4.2219    1.9736 C.2       1 <0>         0.5826
      9 O1          0.0812   -4.6545    0.8373 O.2       1 <0>        -0.5149
     10 C6          0.0853   -5.1517    3.1170 C.ar      1 <0>        -0.2398
     11 C7          0.1823   -4.6586    4.4209 C.ar      1 <0>         0.0430
     12 C8          0.2088   -5.5378    5.4894 C.ar      1 <0>        -0.2090
     13 C9          0.1393   -6.9105    5.2685 C.ar      1 <0>         0.0320
     14 C10         0.0434   -7.4059    3.9851 C.ar      1 <0>        -0.2142
     15 C11         0.0098   -6.5362    2.9021 C.ar      1 <0>         0.3240
     16 N3         -0.0932   -7.0369    1.6082 N.pl3     1 <0>        -0.8414
     17 S2          0.3317   -4.9179    7.1342 S.3       1 <0>         0.1083
     18 C12        -1.3401   -4.8362    7.6849 C.2       1 <0>         0.1341
     19 N4         -2.4111   -5.0883    6.9687 N.2       1 <0>        -0.2852
     20 N5         -3.4643   -4.9307    7.6882 N.2       1 <0>        -0.2896
     21 C13        -3.1315   -4.5718    8.8959 C.2       1 <0>         0.1591
     22 N6         -1.7666   -4.5044    8.9390 N.pl3     1 <0>        -0.4683
     23 C14        -0.9345   -4.1476   10.0907 C.3       1 <0>         0.0707
     24 H1          0.8589    1.9030    0.0180 H         1 <0>         0.0752
     25 H2         -0.6798    1.8488   -0.8753 H         1 <0>         0.0764
     26 H3         -0.6832    1.8380    0.9047 H         1 <0>         0.0737
     27 H4         -0.0686   -0.3502   -2.1753 H         1 <0>         0.1953
     28 H5         -0.0170   -2.5472    3.0938 H         1 <0>         0.4245
     29 H6          0.2367   -3.5940    4.5944 H         1 <0>         0.1345
     30 H7          0.1609   -7.5912    6.1067 H         1 <0>         0.1382
     31 H8         -0.0097   -8.4721    3.8217 H         1 <0>         0.1405
     32 H9         -0.0330   -6.4357    0.8494 H         1 <0>         0.4201
     33 H10        -0.2251   -7.9871    1.4650 H         1 <0>         0.4018
     34 H11        -3.8083   -4.3695    9.7129 H         1 <0>         0.2228
     35 H12        -0.7702   -3.0701   10.1004 H         1 <0>         0.0865
     36 H13        -1.4387   -4.4465   11.0097 H         1 <0>         0.0971
     37 H14         0.0245   -4.6607   10.0190 H         1 <0>         0.0938
@<TRIPOS>BOND
     1    1    2 1
     2    1   24 1
     3    1   25 1
     4    1   26 1
     5    2    6 1
     6    2    3 2
     7    3    4 1
     8    3   27 1
     9    4    5 1
    10    5    6 2
    11    5    7 1
    12    7    8 am
    13    7   28 1
    14    8    9 2
    15    8   10 1
    16   10   15 ar
    17   10   11 ar
    18   11   12 ar
    19   11   29 1
    20   12   13 ar
    21   12   17 1
    22   13   14 ar
    23   13   30 1
    24   14   15 ar
    25   14   31 1
    26   15   16 1
    27   16   32 1
    28   16   33 1
    29   17   18 1
    30   18   22 1
    31   18   19 2
    32   19   20 1
    33   20   21 2
    34   21   22 1
    35   21   34 1
    36   22   23 1
    37   23   35 1
    38   23   36 1
    39   23   37 1
@<TRIPOS>MOLECULE
CHEMBL489710
   33    35     0     0     0
SMALL
USER_CHARGES

@<TRIPOS>ATOM
      1 C1         -1.6413    2.4046    1.7631 C.3       1 <0>         0.0706
      2 N1         -2.3325    1.2382    2.3180 N.pl3     1 <0>        -0.4681
      3 C2         -3.6830    1.0442    2.4075 C.2       1 <0>         0.1598
      4 N2         -3.8719   -0.1197    2.9623 N.2       1 <0>        -0.2894
      5 N3         -2.7414   -0.6706    3.2278 N.2       1 <0>        -0.2852
      6 C3         -1.7618    0.1165    2.8479 C.2       1 <0>         0.1331
      7 S1         -0.0369   -0.2108    2.9973 S.3       1 <0>         0.1096
      8 C4          0.0332   -1.7320    3.8836 C.ar      1 <0>        -0.2085
      9 C5          0.1461   -2.9343    3.1909 C.ar      1 <0>         0.0343
     10 C6          0.2021   -4.1302    3.8752 C.ar      1 <0>        -0.2135
     11 C7          0.1458   -4.1432    5.2634 C.ar      1 <0>         0.3254
     12 C8          0.0320   -2.9352    5.9681 C.ar      1 <0>        -0.2413
     13 C9         -0.0184   -1.7276    5.2666 C.ar      1 <0>         0.0426
     14 C10        -0.0284   -2.9395    7.4408 C.2       1 <0>         0.5830
     15 O1         -0.0934   -3.9937    8.0435 O.2       1 <0>        -0.5095
     16 N4         -0.0117   -1.7752    8.1193 N.am      1 <0>        -0.6023
     17 C11        -0.0685   -1.7792    9.5050 C.2       1 <0>         0.2519
     18 N5         -0.0687   -0.7509   10.3367 N.2       1 <0>        -0.5641
     19 C12        -0.1306   -1.0070   11.6241 C.2       1 <0>         0.2544
     20 N6         -0.1881   -2.2592   12.0051 N.2       1 <0>        -0.5034
     21 S2         -0.1621   -3.0919   10.5503 S.3       1 <0>         0.3732
     22 N7          0.2015   -5.3504    5.9525 N.pl3     1 <0>        -0.8404
     23 H1         -1.4727    2.2538    0.6969 H         1 <0>         0.0868
     24 H2         -2.2532    3.2944    1.9119 H         1 <0>         0.0973
     25 H3         -0.6838    2.5336    2.2677 H         1 <0>         0.0938
     26 H4         -4.4510    1.7288    2.0790 H         1 <0>         0.2229
     27 H5          0.1896   -2.9304    2.1118 H         1 <0>         0.1412
     28 H6          0.2897   -5.0588    3.3308 H         1 <0>         0.1419
     29 H7         -0.1014   -0.7935    5.8023 H         1 <0>         0.1329
     30 H8          0.0401   -0.9343    7.6385 H         1 <0>         0.4274
     31 H9         -0.1335   -0.2065   12.3490 H         1 <0>         0.2207
     32 H10         0.3595   -6.1772    5.4705 H         1 <0>         0.4029
     33 H11         0.0823   -5.3653    6.9150 H         1 <0>         0.4202
@<TRIPOS>BOND
     1    1    2 1
     2    1   23 1
     3    1   24 1
     4    1   25 1
     5    2    6 1
     6    2    3 1
     7    3    4 2
     8    3   26 1
     9    4    5 1
    10    5    6 2
    11    6    7 1
    12    7    8 1
    13    8   13 ar
    14    8    9 ar
    15    9   10 ar
    16    9   27 1
    17   10   11 ar
    18   10   28 1
    19   11   12 ar
    20   11   22 1
    21   12   13 ar
    22   12   14 1
    23   13   29 1
    24   14   15 2
    25   14   16 am
    26   16   17 1
    27   16   30 1
    28   17   21 1
    29   17   18 2
    30   18   19 1
    31   19   20 2
    32   19   31 1
    33   20   21 1
    34   22   32 1
    35   22   33 1
@<TRIPOS>MOLECULE
CHEMBL489711
   36    38     0     0     0
SMALL
USER_CHARGES

@<TRIPOS>ATOM
      1 C1          0.1138    1.5039    0.0070 C.3       1 <0>        -0.0669
      2 C2          0.0974   -0.0030   -0.0006 C.2       1 <0>         0.2763
      3 N1          0.0988   -0.6718   -1.1318 N.2       1 <0>        -0.5602
      4 C3          0.0838   -1.9926   -1.0648 C.2       1 <0>         0.2548
      5 S1          0.0680   -2.2719    0.5924 S.3       1 <0>         0.3669
      6 N2          0.0869   -0.6809    1.1203 N.2       1 <0>        -0.5037
      7 N3          0.0817   -2.9145   -2.1007 N.am      1 <0>        -0.6020
      8 C4          0.0652   -4.2344   -1.8282 C.2       1 <0>         0.5832
      9 O1          0.0521   -4.6167   -0.6739 O.2       1 <0>        -0.5098
     10 C5          0.0629   -5.2142   -2.9292 C.ar      1 <0>        -0.2414
     11 C6         -0.0472   -4.7823   -4.2536 C.ar      1 <0>         0.0437
     12 C7         -0.0487   -5.7083   -5.2821 C.ar      1 <0>        -0.2086
     13 C8          0.0588   -7.0675   -5.0007 C.ar      1 <0>         0.0335
     14 C9          0.1679   -7.5026   -3.6968 C.ar      1 <0>        -0.2134
     15 C10         0.1772   -6.5853   -2.6534 C.ar      1 <0>         0.3255
     16 N4          0.2936   -7.0251   -1.3387 N.pl3     1 <0>        -0.8405
     17 S2         -0.1875   -5.1655   -6.9527 S.3       1 <0>         0.1093
     18 C11         1.4817   -5.0619   -7.5073 C.2       1 <0>         0.1336
     19 N5          2.5588   -5.2523   -6.7813 N.2       1 <0>        -0.2853
     20 N6          3.6078   -5.0979   -7.5077 N.2       1 <0>        -0.2896
     21 C12         3.2659   -4.8024   -8.7301 C.2       1 <0>         0.1597
     22 N7          1.8997   -4.7742   -8.7751 N.pl3     1 <0>        -0.4681
     23 C13         1.0588   -4.4915   -9.9410 C.3       1 <0>         0.0706
     24 H1          1.1454    1.8560    0.0122 H         1 <0>         0.0885
     25 H2         -0.3931    1.8773   -0.8828 H         1 <0>         0.0887
     26 H3         -0.3990    1.8683    0.8972 H         1 <0>         0.0883
     27 H4          0.0922   -2.6095   -3.0215 H         1 <0>         0.4277
     28 H5         -0.1314   -3.7284   -4.4741 H         1 <0>         0.1350
     29 H6          0.0563   -7.7850   -5.8080 H         1 <0>         0.1389
     30 H7          0.2509   -8.5587   -3.4864 H         1 <0>         0.1414
     31 H8          0.2164   -6.3929   -0.6071 H         1 <0>         0.4202
     32 H9          0.4521   -7.9640   -1.1537 H         1 <0>         0.4028
     33 H10         3.9374   -4.6177   -9.5555 H         1 <0>         0.2229
     34 H11         0.8651   -3.4203   -9.9981 H         1 <0>         0.0867
     35 H12         1.5715   -4.8167  -10.8462 H         1 <0>         0.0973
     36 H13         0.1142   -5.0270   -9.8461 H         1 <0>         0.0938
@<TRIPOS>BOND
     1    1    2 1
     2    1   24 1
     3    1   25 1
     4    1   26 1
     5    2    6 2
     6    2    3 1
     7    3    4 2
     8    4    5 1
     9    4    7 1
    10    5    6 1
    11    7    8 am
    12    7   27 1
    13    8    9 2
    14    8   10 1
    15   10   15 ar
    16   10   11 ar
    17   11   12 ar
    18   11   28 1
    19   12   13 ar
    20   12   17 1
    21   13   14 ar
    22   13   29 1
    23   14   15 ar
    24   14   30 1
    25   15   16 1
    26   16   31 1
    27   16   32 1
    28   17   18 1
    29   18   22 1
    30   18   19 2
    31   19   20 1
    32   20   21 2
    33   21   22 1
    34   21   33 1
    35   22   23 1
    36   23   34 1
    37   23   35 1
    38   23   36 1
@<TRIPOS>MOLECULE
CHEMBL505096
   37    39     0     0     0
SMALL
USER_CHARGES

@<TRIPOS>ATOM
      1 C1         -1.5558    2.2079    1.3853 C.3       1 <0>         0.0712
      2 N1         -2.2632    1.0856    2.0066 N.pl3     1 <0>        -0.4690
      3 C2         -3.6163    0.9121    2.0991 C.2       1 <0>         0.1577
      4 N2         -3.8214   -0.2132    2.7235 N.2       1 <0>        -0.2898
      5 N3         -2.6988   -0.7589    3.0297 N.2       1 <0>        -0.2848
      6 C3         -1.7082   -0.0075    2.6083 C.2       1 <0>         0.1346
      7 S1          0.0120   -0.3434    2.7890 S.3       1 <0>         0.1052
      8 C4          0.0599   -1.8078    3.7676 C.ar      1 <0>        -0.2111
      9 C5          0.1636   -3.0516    3.1509 C.ar      1 <0>         0.0277
     10 C6          0.2023   -4.2036    3.9078 C.ar      1 <0>        -0.2159
     11 C7          0.1374   -4.1306    5.2937 C.ar      1 <0>         0.3188
     12 C8          0.0327   -2.8804    5.9221 C.ar      1 <0>        -0.2406
     13 C9         -0.0000   -1.7179    5.1474 C.ar      1 <0>         0.0381
     14 C10        -0.0368   -2.7934    7.3919 C.2       1 <0>         0.5716
     15 O1         -0.1143   -3.8078    8.0580 O.2       1 <0>        -0.4835
     16 N4         -0.0143   -1.5896    7.9975 N.am      1 <0>        -0.6576
     17 C11         0.0317   -1.5100    9.3876 C.ar      1 <0>         0.3602
     18 C12        -0.0565   -0.2695   10.0100 C.ar      1 <0>        -0.2071
     19 C13        -0.0095   -0.2048   11.3911 C.ar      1 <0>        -0.0465
     20 C14         0.1248   -1.3878   12.1055 C.ar      1 <0>        -0.2037
     21 C15         0.2068   -2.5846   11.4221 C.ar      1 <0>         0.1321
     22 N5          0.1537   -2.6162   10.1042 N.ar      1 <0>        -0.4776
     23 N6          0.1755   -5.2936    6.0562 N.pl3     1 <0>        -0.8425
     24 H1         -1.3828    1.9898    0.3315 H         1 <0>         0.0862
     25 H2         -2.1584    3.1117    1.4751 H         1 <0>         0.0966
     26 H3         -0.5998    2.3574    1.8871 H         1 <0>         0.0934
     27 H4         -4.3746    1.5836    1.7245 H         1 <0>         0.2223
     28 H5          0.2138   -3.1146    2.0740 H         1 <0>         0.1378
     29 H6          0.2829   -5.1649    3.4222 H         1 <0>         0.1382
     30 H7         -0.0763   -0.7517    5.6240 H         1 <0>         0.1292
     31 H8         -0.0302   -0.7787    7.4655 H         1 <0>         0.4170
     32 H9         -0.1601    0.6312    9.4230 H         1 <0>         0.1360
     33 H10        -0.0753    0.7444   11.9020 H         1 <0>         0.1391
     34 H11         0.1651   -1.3718   13.1847 H         1 <0>         0.1369
     35 H12         0.3117   -3.5073   11.9736 H         1 <0>         0.1600
     36 H13         0.3265   -6.1502    5.6269 H         1 <0>         0.3992
     37 H14         0.0512   -5.2479    7.0171 H         1 <0>         0.4206
@<TRIPOS>BOND
     1    1    2 1
     2    1   24 1
     3    1   25 1
     4    1   26 1
     5    2    6 1
     6    2    3 1
     7    3    4 2
     8    3   27 1
     9    4    5 1
    10    5    6 2
    11    6    7 1
    12    7    8 1
    13    8   13 ar
    14    8    9 ar
    15    9   10 ar
    16    9   28 1
    17   10   11 ar
    18   10   29 1
    19   11   12 ar
    20   11   23 1
    21   12   13 ar
    22   12   14 1
    23   13   30 1
    24   14   15 2
    25   14   16 am
    26   16   17 1
    27   16   31 1
    28   17   22 ar
    29   17   18 ar
    30   18   19 ar
    31   18   32 1
    32   19   20 ar
    33   19   33 1
    34   20   21 ar
    35   20   34 1
    36   21   22 ar
    37   21   35 1
    38   23   36 1
    39   23   37 1
@<TRIPOS>MOLECULE
CHEMBL1164184
   52    55     0     0     0
SMALL
USER_CHARGES

@<TRIPOS>ATOM
      1 C1         -0.3938    1.5094    0.0090 C.ar      1 <0>        -0.1280
      2 C2          0.6979    2.3573    0.0159 C.ar      1 <0>        -0.0191
      3 C3          1.9781    1.8358    0.0282 C.ar      1 <0>        -0.6503
      4 C4          2.1665    0.4663    0.0340 C.ar      1 <0>        -0.0212
      5 C5          1.0747   -0.3816    0.0280 C.ar      1 <0>        -0.1088
      6 C6         -0.2054    0.1400    0.0144 C.ar      1 <0>        -0.0148
      7 C7         -1.3956   -0.7844    0.0073 C.3       1 <0>        -0.0684
      8 C8         -1.2957   -1.7534    1.1872 C.3       1 <0>        -0.1085
      9 C9         -1.4080   -0.9734    2.4986 C.3       1 <0>        -0.0896
     10 C10        -1.1728   -1.9201    3.6796 C.3       1 <0>        -0.1511
     11 C11        -1.3647   -1.1487    4.9880 C.3       1 <0>         0.0596
     12 O1         -2.6775   -0.5850    5.0190 O.3       1 <0>        -0.3813
     13 C12        -2.9384    0.3443    3.9653 C.3       1 <0>         0.0595
     14 C13        -2.8098   -0.3671    2.6158 C.3       1 <0>        -0.1556
     15 C14        -1.4186   -1.5638   -1.2823 C.2       1 <0>         0.5131
     16 O2         -0.5537   -1.3862   -2.1138 O.2       1 <0>        -0.4482
     17 N1         -2.4004   -2.4583   -1.5116 N.am      1 <0>        -0.6158
     18 C15        -2.4217   -3.1778   -2.7019 C.2       1 <0>         0.3377
     19 N2         -1.5813   -3.1377   -3.7205 N.2       1 <0>        -0.4847
     20 C16        -1.7567   -3.8993   -4.7830 C.2       1 <0>         0.0395
     21 C17        -2.8180   -4.7433   -4.8398 C.2       1 <0>        -0.0241
     22 S1         -3.5893   -4.4108   -3.2610 S.3       1 <0>         0.0454
     23 F1         -3.1864   -5.6013   -5.8162 F         1 <0>        -0.0663
     24 S2          3.3696    2.9166    0.0358 S.o2      1 <0>         2.5237
     25 O3          4.4182    2.1618   -0.5560 O.2       1 <0>        -0.9310
     26 O4          2.9036    4.1120   -0.5751 O.2       1 <0>        -0.9328
     27 C18         3.7235    3.2086    1.7908 C.3       1 <0>        -0.6696
     28 C19         3.3556    4.5772    2.3674 C.3       1 <0>        -0.1254
     29 C20         4.8235    4.2160    2.1315 C.3       1 <0>        -0.1255
     30 H1         -1.3940    1.9169    0.0040 H         1 <0>         0.1339
     31 H2          0.5507    3.4272    0.0114 H         1 <0>         0.1439
     32 H3          3.1666    0.0589    0.0428 H         1 <0>         0.1430
     33 H4          1.2219   -1.4515    0.0319 H         1 <0>         0.1307
     34 H5         -2.3109   -0.1990    0.0944 H         1 <0>         0.1212
     35 H6         -2.1037   -2.4826    1.1278 H         1 <0>         0.0778
     36 H7         -0.3366   -2.2702    1.1528 H         1 <0>         0.0813
     37 H8         -0.6638   -0.1771    2.5141 H         1 <0>         0.0802
     38 H9         -1.8859   -2.7433    3.6342 H         1 <0>         0.0748
     39 H10        -0.1574   -2.3137    3.6344 H         1 <0>         0.0755
     40 H11        -1.2405   -1.8275    5.8317 H         1 <0>         0.0951
     41 H12        -0.6249   -0.3508    5.0513 H         1 <0>         0.0501
     42 H13        -3.9480    0.7411    4.0723 H         1 <0>         0.0951
     43 H14        -2.2192    1.1618    4.0152 H         1 <0>         0.0506
     44 H15        -2.9650    0.3500    1.8097 H         1 <0>         0.0748
     45 H16        -3.5559   -1.1589    2.5489 H         1 <0>         0.0758
     46 H17        -3.0921   -2.6004   -0.8466 H         1 <0>         0.4294
     47 H18        -1.0582   -3.8511   -5.6053 H         1 <0>         0.1840
     48 H19         3.6153    2.3418    2.4427 H         1 <0>         0.1608
     49 H20         2.9009    5.3021    1.6922 H         1 <0>         0.1210
     50 H21         3.0051    4.6110    3.3990 H         1 <0>         0.1149
     51 H22         5.4387    4.0121    3.0079 H         1 <0>         0.1181
     52 H23         5.3345    4.7033    1.3012 H         1 <0>         0.1097
@<TRIPOS>BOND
     1    1    6 ar
     2    1    2 ar
     3    1   30 1
     4    2    3 ar
     5    2   31 1
     6    3    4 ar
     7    3   24 1
     8    4    5 ar
     9    4   32 1
    10    5    6 ar
    11    5   33 1
    12    6    7 1
    13    7    8 1
    14    7   15 1
    15    7   34 1
    16    8    9 1
    17    8   35 1
    18    8   36 1
    19    9   14 1
    20    9   10 1
    21    9   37 1
    22   10   11 1
    23   10   38 1
    24   10   39 1
    25   11   12 1
    26   11   40 1
    27   11   41 1
    28   12   13 1
    29   13   14 1
    30   13   42 1
    31   13   43 1
    32   14   44 1
    33   14   45 1
    34   15   16 2
    35   15   17 am
    36   17   18 1
    37   17   46 1
    38   18   22 1
    39   18   19 2
    40   19   20 1
    41   20   21 2
    42   20   47 1
    43   21   22 1
    44   21   23 1
    45   24   25 2
    46   24   26 2
    47   24   27 1
    48   27   29 1
    49   27   28 1
    50   27   48 1
    51   28   29 1
    52   28   49 1
    53   28   50 1
    54   29   51 1
    55   29   52 1
@<TRIPOS>MOLECULE
CHEMBL1164184__1
   52    55     0     0     0
SMALL
USER_CHARGES

@<TRIPOS>ATOM
      1 C1          0.0151    1.5792   -0.2657 C.ar      1 <0>        -0.1281
      2 C2          1.1648    2.3130   -0.4906 C.ar      1 <0>        -0.0232
      3 C3          2.3850    1.6716   -0.5938 C.ar      1 <0>        -0.6508
      4 C4          2.4556    0.2965   -0.4717 C.ar      1 <0>        -0.0179
      5 C5          1.3060   -0.4373   -0.2459 C.ar      1 <0>        -0.1066
      6 C6          0.0856    0.2040   -0.1441 C.ar      1 <0>        -0.0156
      7 C7         -1.1677   -0.5960    0.1015 C.3       1 <0>        -0.0686
      8 C8         -1.3696   -1.5917   -1.0424 C.3       1 <0>        -0.1076
      9 C9         -1.6232   -0.8285   -2.3440 C.3       1 <0>        -0.0912
     10 C10        -2.9643   -0.0938   -2.2543 C.3       1 <0>        -0.1546
     11 C11        -3.2464    0.6020   -3.5885 C.3       1 <0>         0.0588
     12 O1         -3.2467   -0.3670   -4.6388 O.3       1 <0>        -0.3814
     13 C12        -2.0032   -1.0523   -4.8007 C.3       1 <0>         0.0588
     14 C13        -1.6711   -1.8146   -3.5152 C.3       1 <0>        -0.1507
     15 C14        -1.0385   -1.3452    1.4027 C.2       1 <0>         0.5150
     16 O2         -0.0495   -1.2011    2.0899 O.2       1 <0>        -0.4505
     17 N1         -2.0220   -2.1754    1.8028 N.am      1 <0>        -0.6159
     18 C15        -1.8571   -2.9480    2.9477 C.2       1 <0>         0.3382
     19 N2         -0.8298   -3.0102    3.7760 N.2       1 <0>        -0.4857
     20 C16        -0.8441   -3.8089    4.8256 C.2       1 <0>         0.0389
     21 C17        -1.9307   -4.5853    5.0673 C.2       1 <0>        -0.0241
     22 S1         -2.9818   -4.1178    3.6981 S.3       1 <0>         0.0466
     23 F1         -2.1577   -5.4638    6.0682 F         1 <0>        -0.0663
     24 S2          3.8503    2.6068   -0.8816 S.o2      1 <0>         2.5248
     25 O3          4.7371    1.7024   -1.5257 O.2       1 <0>        -0.9333
     26 O4          3.4059    3.7820   -1.5456 O.2       1 <0>        -0.9327
     27 C18         4.4717    3.0204    0.7717 C.3       1 <0>        -0.6699
     28 C19         5.7756    2.3589    1.2222 C.3       1 <0>        -0.1250
     29 C20         5.7579    3.8446    0.8572 C.3       1 <0>        -0.1254
     30 H1         -0.9376    2.0807   -0.1805 H         1 <0>         0.1340
     31 H2          1.1097    3.3873   -0.5860 H         1 <0>         0.1438
     32 H3          3.4088   -0.2047   -0.5531 H         1 <0>         0.1432
     33 H4          1.3610   -1.5117   -0.1512 H         1 <0>         0.1303
     34 H5         -2.0239    0.0767    0.1531 H         1 <0>         0.1215
     35 H6         -0.4765   -2.2072   -1.1503 H         1 <0>         0.0809
     36 H7         -2.2259   -2.2292   -0.8223 H         1 <0>         0.0779
     37 H8         -0.8215   -0.1081   -2.5065 H         1 <0>         0.0809
     38 H9         -3.7583   -0.8097   -2.0418 H         1 <0>         0.0755
     39 H10        -2.9200    0.6493   -1.4581 H         1 <0>         0.0740
     40 H11        -4.2196    1.0910   -3.5448 H         1 <0>         0.0949
     41 H12        -2.4737    1.3463   -3.7808 H         1 <0>         0.0515
     42 H13        -2.0808   -1.7551   -5.6303 H         1 <0>         0.0955
     43 H14        -1.2142   -0.3296   -5.0088 H         1 <0>         0.0515
     44 H15        -0.7020   -2.3021   -3.6208 H         1 <0>         0.0758
     45 H16        -2.4390   -2.5652   -3.3282 H         1 <0>         0.0743
     46 H17        -2.8447   -2.2342    1.2923 H         1 <0>         0.4299
     47 H18         0.0063   -3.8451    5.4903 H         1 <0>         0.1837
     48 H19         3.7088    3.1979    1.5298 H         1 <0>         0.1613
     49 H20         5.8708    2.1008    2.2769 H         1 <0>         0.1155
     50 H21         6.2601    1.6751    0.5252 H         1 <0>         0.1212
     51 H22         6.2307    4.1383   -0.0799 H         1 <0>         0.1094
     52 H23         5.8414    4.5640    1.6718 H         1 <0>         0.1180
@<TRIPOS>BOND
     1    1    6 ar
     2    1    2 ar
     3    1   30 1
     4    2    3 ar
     5    2   31 1
     6    3    4 ar
     7    3   24 1
     8    4    5 ar
     9    4   32 1
    10    5    6 ar
    11    5   33 1
    12    6    7 1
    13    7    8 1
    14    7   15 1
    15    7   34 1
    16    8    9 1
    17    8   35 1
    18    8   36 1
    19    9   14 1
    20    9   10 1
    21    9   37 1
    22   10   11 1
    23   10   38 1
    24   10   39 1
    25   11   12 1
    26   11   40 1
    27   11   41 1
    28   12   13 1
    29   13   14 1
    30   13   42 1
    31   13   43 1
    32   14   44 1
    33   14   45 1
    34   15   16 2
    35   15   17 am
    36   17   18 1
    37   17   46 1
    38   18   22 1
    39   18   19 2
    40   19   20 1
    41   20   21 2
    42   20   47 1
    43   21   22 1
    44   21   23 1
    45   24   25 2
    46   24   26 2
    47   24   27 1
    48   27   29 1
    49   27   28 1
    50   27   48 1
    51   28   29 1
    52   28   49 1
    53   28   50 1
    54   29   51 1
    55   29   52 1
@<TRIPOS>MOLECULE
CHEMBL1164323
   58    61     0     0     0
SMALL
USER_CHARGES

@<TRIPOS>ATOM
      1 C1         -0.6791    1.7208   -0.4816 C.3       1 <0>        -0.6501
      2 S1         -0.6217   -0.0923   -0.4915 S.o2      1 <0>         2.4981
      3 O1          0.0848   -0.5658    0.6469 O.2       1 <0>        -0.9364
      4 O2         -1.8985   -0.6206   -0.8231 O.2       1 <0>        -0.9366
      5 C2          0.4056   -0.5053   -1.8621 C.ar      1 <0>        -0.6547
      6 C3         -0.1523   -0.6884   -3.1136 C.ar      1 <0>        -0.0217
      7 C4          0.6537   -1.0124   -4.1889 C.ar      1 <0>        -0.1274
      8 C5          2.0175   -1.1530   -4.0129 C.ar      1 <0>        -0.0158
      9 C6          2.5755   -0.9690   -2.7616 C.ar      1 <0>        -0.1091
     10 C7          1.7701   -0.6408   -1.6871 C.ar      1 <0>        -0.0206
     11 C8          2.8960   -1.5072   -5.1850 C.3       1 <0>        -0.0664
     12 C9          3.7157   -2.7547   -4.8493 C.3       1 <0>        -0.1090
     13 C10         2.7774   -3.9516   -4.6818 C.3       1 <0>        -0.0898
     14 C11         3.5793   -5.1697   -4.2133 C.3       1 <0>        -0.1508
     15 C12         2.6473   -6.3810   -4.1243 C.3       1 <0>         0.0590
     16 O3          2.0411   -6.6085   -5.3982 O.3       1 <0>        -0.3813
     17 C13         1.2399   -5.5214   -5.8656 C.3       1 <0>         0.0592
     18 C14         2.1154   -4.2756   -6.0246 C.3       1 <0>        -0.1552
     19 C15         3.8266   -0.3592   -5.4803 C.2       1 <0>         0.5213
     20 O4          3.7809    0.6475   -4.8055 O.2       1 <0>        -0.4828
     21 N1          4.7096   -0.4512   -6.4944 N.am      1 <0>        -0.6076
     22 C16         5.5676    0.6073   -6.7667 C.2       1 <0>         0.3135
     23 N2          6.4884    0.7155   -7.7061 N.2       1 <0>        -0.5286
     24 C17         7.2252    1.8099   -7.8242 C.2       1 <0>         0.1186
     25 C18         7.0283    2.8478   -6.9565 C.2       1 <0>        -0.2376
     26 S2          5.7120    2.1869   -5.9428 S.3       1 <0>         0.1194
     27 C19         8.2544    1.9082   -8.8876 C.ar      1 <0>        -0.0272
     28 C20         9.0318    3.0593   -9.0045 C.ar      1 <0>        -0.1037
     29 C21         9.9879    3.1452   -9.9959 C.ar      1 <0>        -0.1203
     30 C22        10.1753    2.0920  -10.8730 C.ar      1 <0>        -0.1132
     31 C23         9.4064    0.9474  -10.7620 C.ar      1 <0>        -0.1233
     32 C24         8.4519    0.8477   -9.7703 C.ar      1 <0>        -0.0866
     33 H1          0.3299    2.1156   -0.3626 H         1 <0>         0.1323
     34 H2         -1.0998    2.0761   -1.4223 H         1 <0>         0.1319
     35 H3         -1.3020    2.0601    0.3461 H         1 <0>         0.1340
     36 H4         -1.2178   -0.5785   -3.2511 H         1 <0>         0.1445
     37 H5          0.2177   -1.1561   -5.1665 H         1 <0>         0.1336
     38 H6          3.6410   -1.0792   -2.6240 H         1 <0>         0.1304
     39 H7          2.2065   -0.4934   -0.7103 H         1 <0>         0.1438
     40 H8          2.2744   -1.7049   -6.0582 H         1 <0>         0.1232
     41 H9          4.4196   -2.9552   -5.6570 H         1 <0>         0.0792
     42 H10         4.2642   -2.5904   -3.9218 H         1 <0>         0.0816
     43 H11         2.0102   -3.7131   -3.9451 H         1 <0>         0.0807
     44 H12         4.3779   -5.3761   -4.9259 H         1 <0>         0.0746
     45 H13         4.0087   -4.9677   -3.2320 H         1 <0>         0.0759
     46 H14         3.2212   -7.2605   -3.8325 H         1 <0>         0.0956
     47 H15         1.8724   -6.1896   -3.3819 H         1 <0>         0.0514
     48 H16         0.7999   -5.7817   -6.8283 H         1 <0>         0.0950
     49 H17         0.4466   -5.3188   -5.1461 H         1 <0>         0.0514
     50 H18         1.4979   -3.4341   -6.3387 H         1 <0>         0.0738
     51 H19         2.8844   -4.4640   -6.7738 H         1 <0>         0.0758
     52 H20         4.7461   -1.2564   -7.0341 H         1 <0>         0.4275
     53 H21         7.5273    3.8040   -6.9010 H         1 <0>         0.1998
     54 H22         8.8859    3.8824   -8.3208 H         1 <0>         0.1248
     55 H23        10.5909    4.0365  -10.0875 H         1 <0>         0.1264
     56 H24        10.9245    2.1637  -11.6476 H         1 <0>         0.1238
     57 H25         9.5565    0.1285  -11.4499 H         1 <0>         0.1248
     58 H26         7.8554   -0.0483   -9.6815 H         1 <0>         0.1309
@<TRIPOS>BOND
     1    1    2 1
     2    1   33 1
     3    1   34 1
     4    1   35 1
     5    2    3 2
     6    2    4 2
     7    2    5 1
     8    5   10 ar
     9    5    6 ar
    10    6    7 ar
    11    6   36 1
    12    7    8 ar
    13    7   37 1
    14    8    9 ar
    15    8   11 1
    16    9   10 ar
    17    9   38 1
    18   10   39 1
    19   11   12 1
    20   11   19 1
    21   11   40 1
    22   12   13 1
    23   12   41 1
    24   12   42 1
    25   13   18 1
    26   13   14 1
    27   13   43 1
    28   14   15 1
    29   14   44 1
    30   14   45 1
    31   15   16 1
    32   15   46 1
    33   15   47 1
    34   16   17 1
    35   17   18 1
    36   17   48 1
    37   17   49 1
    38   18   50 1
    39   18   51 1
    40   19   20 2
    41   19   21 am
    42   21   22 1
    43   21   52 1
    44   22   26 1
    45   22   23 2
    46   23   24 1
    47   24   25 2
    48   24   27 1
    49   25   26 1
    50   25   53 1
    51   27   32 ar
    52   27   28 ar
    53   28   29 ar
    54   28   54 1
    55   29   30 ar
    56   29   55 1
    57   30   31 ar
    58   30   56 1
    59   31   32 ar
    60   31   57 1
    61   32   58 1
@<TRIPOS>MOLECULE
CHEMBL1164323__1
   58    61     0     0     0
SMALL
USER_CHARGES

@<TRIPOS>ATOM
      1 C1          0.1134    3.0759   -0.8300 C.3       1 <0>        -0.6505
      2 S1         -0.1611    1.3117   -0.5098 S.o2      1 <0>         2.4975
      3 O1          0.5317    0.9140    0.6655 O.2       1 <0>        -0.9351
      4 O2         -1.5341    0.9902   -0.6851 O.2       1 <0>        -0.9358
      5 C2          0.6670    0.4789   -1.8233 C.ar      1 <0>        -0.6543
      6 C3         -0.0081    0.1942   -2.9955 C.ar      1 <0>        -0.0225
      7 C4          0.6415   -0.4592   -4.0261 C.ar      1 <0>        -0.1273
      8 C5          1.9664   -0.8275   -3.8845 C.ar      1 <0>        -0.0169
      9 C6          2.6417   -0.5420   -2.7127 C.ar      1 <0>        -0.1074
     10 C7          1.9933    0.1152   -1.6838 C.ar      1 <0>        -0.0211
     11 C8          2.6743   -1.5406   -5.0076 C.3       1 <0>        -0.0660
     12 C9          3.8728   -0.7071   -5.4658 C.3       1 <0>        -0.1085
     13 C10         3.3779    0.6089   -6.0692 C.3       1 <0>        -0.0890
     14 C11         2.6137    0.3228   -7.3656 C.3       1 <0>        -0.1558
     15 C12         2.1907    1.6490   -8.0027 C.3       1 <0>         0.0597
     16 O3          3.3485    2.4522   -8.2409 O.3       1 <0>        -0.3812
     17 C13         4.0767    2.7910   -7.0589 C.3       1 <0>         0.0598
     18 C14         4.5754    1.5107   -6.3839 C.3       1 <0>        -0.1513
     19 C15         3.1529   -2.8859   -4.5257 C.2       1 <0>         0.5196
     20 O4          2.8956   -3.2531   -3.3988 O.2       1 <0>        -0.4801
     21 N1          3.8668   -3.6810   -5.3471 N.am      1 <0>        -0.6079
     22 C16         4.3976   -4.8737   -4.8711 C.2       1 <0>         0.3129
     23 N2          5.1209   -5.7777   -5.5050 N.2       1 <0>        -0.5288
     24 C17         5.5499   -6.8698   -4.8902 C.2       1 <0>         0.1179
     25 C18         5.2377   -7.0647   -3.5735 C.2       1 <0>        -0.2369
     26 S2          4.2888   -5.5873   -3.2359 S.3       1 <0>         0.1209
     27 C19         6.3610   -7.8719   -5.6234 C.ar      1 <0>        -0.0266
     28 C20         6.8052   -9.0226   -4.9744 C.ar      1 <0>        -0.1038
     29 C21         7.5596   -9.9516   -5.6617 C.ar      1 <0>        -0.1202
     30 C22         7.8755   -9.7422   -6.9921 C.ar      1 <0>        -0.1135
     31 C23         7.4377   -8.6018   -7.6412 C.ar      1 <0>        -0.1234
     32 C24         6.6771   -7.6692   -6.9658 C.ar      1 <0>        -0.0868
     33 H1          1.1835    3.2834   -0.8278 H         1 <0>         0.1316
     34 H2         -0.3056    3.3384   -1.8014 H         1 <0>         0.1315
     35 H3         -0.3727    3.6661   -0.0532 H         1 <0>         0.1340
     36 H4         -1.0432    0.4819   -3.1061 H         1 <0>         0.1445
     37 H5          0.1139   -0.6822   -4.9416 H         1 <0>         0.1337
     38 H6          3.6767   -0.8300   -2.6020 H         1 <0>         0.1299
     39 H7          2.5220    0.3416   -0.7696 H         1 <0>         0.1438
     40 H8          1.9864   -1.6772   -5.8420 H         1 <0>         0.1233
     41 H9          4.5163   -0.4959   -4.6117 H         1 <0>         0.0810
     42 H10         4.4356   -1.2621   -6.2164 H         1 <0>         0.0795
     43 H11         2.7200    1.1107   -5.3597 H         1 <0>         0.0804
     44 H12         3.2574   -0.2235   -8.0549 H         1 <0>         0.0762
     45 H13         1.7285   -0.2729   -7.1427 H         1 <0>         0.0743
     46 H14         1.6837    1.4531   -8.9475 H         1 <0>         0.0952
     47 H15         1.5147    2.1764   -7.3297 H         1 <0>         0.0507
     48 H16         4.9283    3.4177   -7.3238 H         1 <0>         0.0952
     49 H17         3.4253    3.3333   -6.3735 H         1 <0>         0.0502
     50 H18         5.0932    1.7645   -5.4589 H         1 <0>         0.0755
     51 H19         5.2588    0.9883   -7.0534 H         1 <0>         0.0749
     52 H20         4.0101   -3.4207   -6.2704 H         1 <0>         0.4271
     53 H21         5.4960   -7.8829   -2.9177 H         1 <0>         0.1998
     54 H22         6.5598   -9.1868   -3.9355 H         1 <0>         0.1249
     55 H23         7.9044  -10.8436   -5.1598 H         1 <0>         0.1264
     56 H24         8.4664  -10.4717   -7.5259 H         1 <0>         0.1237
     57 H25         7.6879   -8.4431   -8.6798 H         1 <0>         0.1247
     58 H26         6.3318   -6.7815   -7.4749 H         1 <0>         0.1308
@<TRIPOS>BOND
     1    1    2 1
     2    1   33 1
     3    1   34 1
     4    1   35 1
     5    2    3 2
     6    2    4 2
     7    2    5 1
     8    5   10 ar
     9    5    6 ar
    10    6    7 ar
    11    6   36 1
    12    7    8 ar
    13    7   37 1
    14    8    9 ar
    15    8   11 1
    16    9   10 ar
    17    9   38 1
    18   10   39 1
    19   11   12 1
    20   11   19 1
    21   11   40 1
    22   12   13 1
    23   12   41 1
    24   12   42 1
    25   13   18 1
    26   13   14 1
    27   13   43 1
    28   14   15 1
    29   14   44 1
    30   14   45 1
    31   15   16 1
    32   15   46 1
    33   15   47 1
    34   16   17 1
    35   17   18 1
    36   17   48 1
    37   17   49 1
    38   18   50 1
    39   18   51 1
    40   19   20 2
    41   19   21 am
    42   21   22 1
    43   21   52 1
    44   22   26 1
    45   22   23 2
    46   23   24 1
    47   24   25 2
    48   24   27 1
    49   25   26 1
    50   25   53 1
    51   27   32 ar
    52   27   28 ar
    53   28   29 ar
    54   28   54 1
    55   29   30 ar
    56   29   55 1
    57   30   31 ar
    58   30   56 1
    59   31   32 ar
    60   31   57 1
    61   32   58 1
@<TRIPOS>MOLECULE
CHEMBL191239
   51    53     0     0     0
SMALL
USER_CHARGES

@<TRIPOS>ATOM
      1 C1         -1.9614   -2.2202    1.5612 C.3       1 <0>        -0.1802
      2 C2         -2.1312   -0.7508    1.1699 C.3       1 <0>         0.0713
      3 C3         -1.6678    0.1410    2.3235 C.3       1 <0>        -0.1472
      4 O1         -1.3464   -0.4734    0.0084 O.3       1 <0>        -0.3066
      5 C4         -1.8955   -0.7828   -1.1957 C.ar      1 <0>         0.1693
      6 C5         -3.1949   -1.2583   -1.2616 C.ar      1 <0>        -0.1867
      7 C6         -3.7578   -1.5751   -2.4982 C.ar      1 <0>        -0.0467
      8 C7         -3.0083   -1.4114   -3.6640 C.ar      1 <0>        -0.1578
      9 C8         -1.7099   -0.9355   -3.5889 C.ar      1 <0>         0.1644
     10 C9         -1.1559   -0.6166   -2.3574 C.ar      1 <0>        -0.2232
     11 O2         -0.9791   -0.7757   -4.7236 O.3       1 <0>        -0.3029
     12 C10         0.3529   -0.2807   -4.5730 C.3       1 <0>         0.1034
     13 C11         1.0038   -0.1700   -5.9277 C.ar      1 <0>        -0.1261
     14 C12         0.2999   -0.5224   -7.0638 C.ar      1 <0>        -0.0689
     15 C13         0.8966   -0.4209   -8.3065 C.ar      1 <0>        -0.1277
     16 C14         2.1981    0.0331   -8.4146 C.ar      1 <0>        -0.0894
     17 C15         2.9036    0.3865   -7.2803 C.ar      1 <0>        -0.1523
     18 C16         2.3050    0.2902   -6.0352 C.ar      1 <0>         0.1046
     19 F1          2.9923    0.6398   -4.9258 F         1 <0>        -0.1370
     20 C17        -5.1439   -2.0832   -2.5734 C.2       1 <0>         0.5452
     21 O3         -5.7949   -2.2255   -1.5570 O.2       1 <0>        -0.4582
     22 N1         -5.6857   -2.3888   -3.7690 N.am      1 <0>        -0.6514
     23 C18        -7.0201   -2.7607   -3.8514 C.ar      1 <0>         0.3350
     24 C19        -7.5990   -2.9680   -5.1018 C.ar      1 <0>        -0.2163
     25 C20        -8.9152   -3.3353   -5.1802 C.ar      1 <0>        -0.0207
     26 C21        -9.6392   -3.4908   -3.9867 C.ar      1 <0>        -0.2051
     27 C22        -8.9932   -3.2661   -2.7682 C.ar      1 <0>         0.1543
     28 N2         -7.7240   -2.9190   -2.7391 N.ar      1 <0>        -0.4861
     29 C23       -11.0577   -3.8841   -4.0191 C.2       1 <0>         0.5268
     30 O4        -11.6143   -4.0781   -5.0911 O.co2     1 <0>        -0.6872
     31 O5        -11.6796   -4.0170   -2.9741 O.co2     1 <0>        -0.6838
     32 H1         -2.5601   -2.4318    2.4471 H         1 <0>         0.0755
     33 H2         -2.2916   -2.8555    0.7393 H         1 <0>         0.0646
     34 H3         -0.9116   -2.4200    1.7758 H         1 <0>         0.0663
     35 H4         -3.1810   -0.5510    0.9552 H         1 <0>         0.0811
     36 H5         -0.6180   -0.0589    2.5382 H         1 <0>         0.0663
     37 H6         -1.7888    1.1878    2.0448 H         1 <0>         0.0653
     38 H7         -2.2665   -0.0706    3.2095 H         1 <0>         0.0795
     39 H8         -3.7713   -1.3838   -0.3569 H         1 <0>         0.1485
     40 H9         -3.4400   -1.6558   -4.6233 H         1 <0>         0.1374
     41 H10        -0.1445   -0.2418   -2.3028 H         1 <0>         0.1401
     42 H11         0.3243    0.7020   -4.1023 H         1 <0>         0.0827
     43 H12         0.9268   -0.9659   -3.9491 H         1 <0>         0.0826
     44 H13        -0.7166   -0.8776   -6.9806 H         1 <0>         0.1443
     45 H14         0.3460   -0.6969   -9.1936 H         1 <0>         0.1335
     46 H15         2.6636    0.1114   -9.3860 H         1 <0>         0.1343
     47 H16         3.9203    0.7408   -7.3649 H         1 <0>         0.1381
     48 H17        -5.1429   -2.3486   -4.5720 H         1 <0>         0.4131
     49 H18        -7.0146   -2.8398   -6.0009 H         1 <0>         0.1274
     50 H19        -9.3863   -3.5014   -6.1378 H         1 <0>         0.1408
     51 H20        -9.5386   -3.3819   -1.8431 H         1 <0>         0.1658
@<TRIPOS>BOND
     1    1    2 1
     2    1   32 1
     3    1   33 1
     4    1   34 1
     5    2    3 1
     6    2    4 1
     7    2   35 1
     8    3   36 1
     9    3   37 1
    10    3   38 1
    11    4    5 1
    12    5   10 ar
    13    5    6 ar
    14    6    7 ar
    15    6   39 1
    16    7    8 ar
    17    7   20 1
    18    8    9 ar
    19    8   40 1
    20    9   10 ar
    21    9   11 1
    22   10   41 1
    23   11   12 1
    24   12   13 1
    25   12   42 1
    26   12   43 1
    27   13   18 ar
    28   13   14 ar
    29   14   15 ar
    30   14   44 1
    31   15   16 ar
    32   15   45 1
    33   16   17 ar
    34   16   46 1
    35   17   18 ar
    36   17   47 1
    37   18   19 1
    38   20   21 2
    39   20   22 am
    40   22   23 1
    41   22   48 1
    42   23   28 ar
    43   23   24 ar
    44   24   25 ar
    45   24   49 1
    46   25   26 ar
    47   25   50 1
    48   26   27 ar
    49   26   29 1
    50   27   28 ar
    51   27   51 1
    52   29   30 2
    53   29   31 1
@<TRIPOS>MOLECULE
CHEMBL551445
   46    49     0     0     0
SMALL
USER_CHARGES

@<TRIPOS>ATOM
      1 C1         -0.5207    1.4703   -0.2248 C.3       1 <0>        -0.0797
      2 C2         -0.4040   -0.0318   -0.1904 C.2       1 <0>         0.0858
      3 C3         -0.2235   -0.7540   -1.3234 C.2       1 <0>        -0.2828
      4 S1         -0.1629   -2.4093   -0.6569 S.3       1 <0>         0.2221
      5 C4         -0.3701   -2.0144    0.9659 C.2       1 <0>         0.2472
      6 N1         -0.4674   -0.7025    0.9450 N.2       1 <0>        -0.5531
      7 N2         -0.4203   -2.8662    2.0619 N.am      1 <0>        -0.6063
      8 C5         -0.2943   -4.1967    1.8876 C.2       1 <0>         0.5633
      9 O1         -0.1366   -4.6515    0.7707 O.2       1 <0>        -0.4739
     10 C6         -0.3476   -5.1004    3.0503 C.ar      1 <0>        -0.1405
     11 C7         -0.5345   -4.5824    4.3346 C.ar      1 <0>         0.0134
     12 C8         -0.5839   -5.4375    5.4217 C.ar      1 <0>        -0.1590
     13 C9         -0.4477   -6.8113    5.2393 C.ar      1 <0>         0.0041
     14 C10        -0.2630   -7.3316    3.9763 C.ar      1 <0>        -0.1442
     15 C11        -0.2168   -6.4870    2.8731 C.ar      1 <0>        -0.0156
     16 S2          0.0120   -7.1540    1.2583 S.3       1 <0>         0.1314
     17 C12        -0.0279   -8.8978    1.5078 C.ar      1 <0>        -0.2090
     18 C13        -1.2421   -9.5731    1.5074 C.ar      1 <0>        -0.0304
     19 C14        -1.2708  -10.9398    1.7031 C.ar      1 <0>        -0.1643
     20 C15        -0.0906  -11.6371    1.9002 C.ar      1 <0>         0.1342
     21 C16         1.1209  -10.9662    1.9011 C.ar      1 <0>        -0.1651
     22 C17         1.1552   -9.6005    1.6996 C.ar      1 <0>        -0.0319
     23 F1         -0.1213  -12.9740    2.0924 F         1 <0>        -0.1317
     24 S3         -0.8195   -4.7857    7.0417 S.3       1 <0>         0.1135
     25 C18        -2.5702   -4.6740    7.2058 C.2       1 <0>         0.1328
     26 N3         -3.4595   -4.9307    6.2748 N.2       1 <0>        -0.2839
     27 N4         -4.6436   -4.7466    6.7396 N.2       1 <0>        -0.2877
     28 C19        -4.5813   -4.3648    7.9840 C.2       1 <0>         0.1629
     29 N5         -3.2591   -4.3097    8.3273 N.pl3     1 <0>        -0.4667
     30 C20        -2.6976   -3.9348    9.6275 C.3       1 <0>         0.0698
     31 H1          0.4701    1.9140   -0.1276 H         1 <0>         0.0749
     32 H2         -0.9656    1.7786   -1.1709 H         1 <0>         0.0763
     33 H3         -1.1511    1.8047    0.5992 H         1 <0>         0.0733
     34 H4         -0.1399   -0.4202   -2.3471 H         1 <0>         0.1952
     35 H5         -0.5461   -2.5035    2.9527 H         1 <0>         0.4230
     36 H6         -0.6397   -3.5172    4.4786 H         1 <0>         0.1397
     37 H7         -0.4866   -7.4727    6.0922 H         1 <0>         0.1430
     38 H8         -0.1578   -8.3982    3.8430 H         1 <0>         0.1406
     39 H9         -2.1627   -9.0296    1.3544 H         1 <0>         0.1434
     40 H10        -2.2144  -11.4652    1.7029 H         1 <0>         0.1439
     41 H11         2.0399  -11.5121    2.0553 H         1 <0>         0.1439
     42 H12         2.1006   -9.0783    1.6959 H         1 <0>         0.1439
     43 H13        -5.4193   -4.1378    8.6265 H         1 <0>         0.2243
     44 H14        -2.5241   -2.8590    9.6517 H         1 <0>         0.0878
     45 H15        -3.3970   -4.2080   10.4177 H         1 <0>         0.0984
     46 H16        -1.7540   -4.4585    9.7804 H         1 <0>         0.0938
@<TRIPOS>BOND
     1    1    2 1
     2    1   31 1
     3    1   32 1
     4    1   33 1
     5    2    6 1
     6    2    3 2
     7    3    4 1
     8    3   34 1
     9    4    5 1
    10    5    6 2
    11    5    7 1
    12    7    8 am
    13    7   35 1
    14    8    9 2
    15    8   10 1
    16   10   15 ar
    17   10   11 ar
    18   11   12 ar
    19   11   36 1
    20   12   13 ar
    21   12   24 1
    22   13   14 ar
    23   13   37 1
    24   14   15 ar
    25   14   38 1
    26   15   16 1
    27   16   17 1
    28   17   22 ar
    29   17   18 ar
    30   18   19 ar
    31   18   39 1
    32   19   20 ar
    33   19   40 1
    34   20   21 ar
    35   20   23 1
    36   21   22 ar
    37   21   41 1
    38   22   42 1
    39   24   25 1
    40   25   29 1
    41   25   26 2
    42   26   27 1
    43   27   28 2
    44   28   29 1
    45   28   43 1
    46   29   30 1
    47   30   44 1
    48   30   45 1
    49   30   46 1
@<TRIPOS>MOLECULE
CHEMBL578638
   48    51     0     0     0
SMALL
USER_CHARGES

@<TRIPOS>ATOM
      1 C1          0.6801    2.5813   -0.4522 C.3       1 <0>        -0.1662
      2 C2          0.3618    1.1042   -0.2115 C.3       1 <0>         0.1336
      3 N1          0.9482    0.6796    1.0622 N.pl3     1 <0>        -0.3659
      4 C3          0.2864    0.0990    2.0852 C.2       1 <0>         0.0590
      5 C4          1.1775   -0.1385    3.0743 C.2       1 <0>        -0.2621
      6 C5          2.4340    0.3142    2.6400 C.2       1 <0>         0.2985
      7 N2          2.2947    0.7998    1.4287 N.2       1 <0>        -0.3242
      8 N3          3.6277    0.2530    3.3696 N.pl3     1 <0>        -0.6001
      9 C6          3.6342   -0.2912    4.6375 C.ar      1 <0>         0.4763
     10 C7          4.8297   -0.3575    5.3948 C.ar      1 <0>        -0.1506
     11 C8          6.0483    0.1201    4.9012 C.ar      1 <0>        -0.0982
     12 C9          7.1781    0.0281    5.6858 C.ar      1 <0>         0.1223
     13 C10         7.1137   -0.5354    6.9626 C.ar      1 <0>        -0.1244
     14 C11         5.9377   -1.0068    7.4622 C.ar      1 <0>        -0.0623
     15 C12         4.7708   -0.9276    6.6897 C.ar      1 <0>         0.1711
     16 N4          3.5903   -1.3784    7.1416 N.ar      1 <0>        -0.5356
     17 C13         2.5150   -1.2910    6.3959 C.ar      1 <0>         0.3373
     18 N5          2.5205   -0.7615    5.1826 N.ar      1 <0>        -0.5685
     19 O1          8.3656    0.4896    5.2128 O.3       1 <0>        -0.2593
     20 C14         9.4575    0.3818    6.0152 C.ar      1 <0>         0.1356
     21 C15         9.7053    1.3442    6.9868 C.ar      1 <0>         0.0783
     22 C16        10.8171    1.2312    7.8012 C.ar      1 <0>        -0.0895
     23 C17        11.6812    0.1621    7.6486 C.ar      1 <0>        -0.1012
     24 C18        11.4360   -0.7958    6.6828 C.ar      1 <0>        -0.0183
     25 C19        10.3231   -0.6915    5.8699 C.ar      1 <0>        -0.6450
     26 S1         10.0083   -1.9181    4.6447 S.o2      1 <0>         2.4945
     27 O2         11.0582   -2.8631    4.7996 O.2       1 <0>        -0.9309
     28 O3          8.6549   -2.2984    4.8517 O.2       1 <0>        -0.9167
     29 C20        10.1781   -1.0496    3.0612 C.3       1 <0>        -0.6454
     30 F1          8.8615    2.3888    7.1350 F         1 <0>        -0.1189
     31 H1          1.7608    2.7193   -0.4858 H         1 <0>         0.0695
     32 H2          0.2438    2.8972   -1.3998 H         1 <0>         0.0751
     33 H3          0.2623    3.1796    0.3575 H         1 <0>         0.0604
     34 H4         -0.7189    0.9662   -0.1779 H         1 <0>         0.0983
     35 H5          0.7795    0.5059   -1.0212 H         1 <0>         0.0836
     36 H6         -0.7678   -0.1344    2.1096 H         1 <0>         0.1769
     37 H7          0.9613   -0.5951    4.0288 H         1 <0>         0.1848
     38 H8          4.4501    0.5931    2.9836 H         1 <0>         0.4254
     39 H9          6.1036    0.5563    3.9147 H         1 <0>         0.1384
     40 H10         8.0099   -0.5985    7.5620 H         1 <0>         0.1336
     41 H11         5.9043   -1.4404    8.4508 H         1 <0>         0.1495
     42 H12         1.5817   -1.6638    6.7913 H         1 <0>         0.2000
     43 H13        11.0110    1.9783    8.5566 H         1 <0>         0.1553
     44 H14        12.5495    0.0758    8.2851 H         1 <0>         0.1537
     45 H15        12.1127   -1.6294    6.5661 H         1 <0>         0.1633
     46 H16        11.1933   -0.6648    2.9649 H         1 <0>         0.1337
     47 H17         9.9724   -1.7407    2.2438 H         1 <0>         0.1376
     48 H18         9.4705   -0.2213    3.0234 H         1 <0>         0.1377
@<TRIPOS>BOND
     1    1    2 1
     2    1   31 1
     3    1   32 1
     4    1   33 1
     5    2    3 1
     6    2   34 1
     7    2   35 1
     8    3    7 1
     9    3    4 1
    10    4    5 2
    11    4   36 1
    12    5    6 1
    13    5   37 1
    14    6    7 2
    15    6    8 1
    16    8    9 1
    17    8   38 1
    18    9   18 ar
    19    9   10 ar
    20   10   15 ar
    21   10   11 ar
    22   11   12 ar
    23   11   39 1
    24   12   13 ar
    25   12   19 1
    26   13   14 ar
    27   13   40 1
    28   14   15 ar
    29   14   41 1
    30   15   16 ar
    31   16   17 ar
    32   17   18 ar
    33   17   42 1
    34   19   20 1
    35   20   25 ar
    36   20   21 ar
    37   21   22 ar
    38   21   30 1
    39   22   23 ar
    40   22   43 1
    41   23   24 ar
    42   23   44 1
    43   24   25 ar
    44   24   45 1
    45   25   26 1
    46   26   27 2
    47   26   28 2
    48   26   29 1
    49   29   46 1
    50   29   47 1
    51   29   48 1
@<TRIPOS>MOLECULE
CHEMBL595353
   55    59     0     0     0
SMALL
USER_CHARGES

@<TRIPOS>ATOM
      1 C1         -2.2978    1.3109    1.8112 C.3       1 <0>        -0.1512
      2 C2         -2.1433   -0.2062    1.6872 C.3       1 <0>        -0.6079
      3 S1         -1.6129   -0.6244    0.0036 S.o2      1 <0>         2.4947
      4 O1         -2.6525   -0.3387   -0.9221 O.2       1 <0>        -0.9316
      5 O2         -0.2911   -0.1551   -0.2239 O.2       1 <0>        -0.9316
      6 C3         -1.4741   -2.3809   -0.0043 C.ar      1 <0>        -0.6653
      7 C4         -0.2755   -2.9800    0.3370 C.ar      1 <0>        -0.0074
      8 C5         -0.1641   -4.3568    0.3320 C.ar      1 <0>        -0.1561
      9 C6         -1.2563   -5.1388   -0.0158 C.ar      1 <0>         0.1463
     10 C7         -2.4580   -4.5351   -0.3578 C.ar      1 <0>        -0.1398
     11 C8         -2.5655   -3.1579   -0.3462 C.ar      1 <0>        -0.0062
     12 O3         -1.1492   -6.4933   -0.0219 O.3       1 <0>        -0.2362
     13 C9         -0.9794   -7.1253    1.1693 C.ar      1 <0>         0.1641
     14 C10        -1.0498   -6.4031    2.3478 C.ar      1 <0>        -0.1944
     15 C11        -0.8760   -7.0515    3.5620 C.ar      1 <0>         0.0998
     16 C12        -0.6297   -8.4367    3.5879 C.ar      1 <0>         0.0268
     17 C13        -0.5621   -9.1475    2.3845 C.ar      1 <0>        -0.0161
     18 C14        -0.7412   -8.4972    1.1978 C.ar      1 <0>        -0.1134
     19 C15        -0.6736   -9.2699   -0.0943 C.3       1 <0>         0.0125
     20 C16         0.7207   -9.1828   -0.6594 C.2       1 <0>         0.1864
     21 N1          1.1767   -8.2684   -1.4804 N.2       1 <0>        -0.2870
     22 N2          2.4113   -8.5385   -1.7308 N.2       1 <0>        -0.0751
     23 N3          2.7547   -9.6015   -1.0909 N.2       1 <0>        -0.0945
     24 N4          1.7412  -10.0256   -0.4145 N.pl3     1 <0>        -0.3067
     25 C17         1.7066  -11.2048    0.4541 C.3       1 <0>         0.0738
     26 N5         -0.5028   -8.7960    4.8880 N.2       1 <0>        -0.4605
     27 C18        -0.6518   -7.7433    5.6525 C.2       1 <0>         0.3319
     28 N6         -0.8852   -6.6373    4.8785 N.pl3     1 <0>        -0.5767
     29 C19        -0.5791   -7.7477    7.1304 C.ar      1 <0>         0.1769
     30 C20        -0.3287   -8.9411    7.8071 C.ar      1 <0>        -0.1174
     31 C21        -0.2636   -8.9290    9.1898 C.ar      1 <0>        -0.0731
     32 C22        -0.4511   -7.7236    9.8512 C.ar      1 <0>        -0.1554
     33 C23        -0.6958   -6.5770    9.1167 C.ar      1 <0>         0.1073
     34 N7         -0.7474   -6.6144    7.8015 N.ar      1 <0>        -0.4795
     35 H1         -2.6165    1.5621    2.8229 H         1 <0>         0.0858
     36 H2         -1.3425    1.7918    1.6012 H         1 <0>         0.0753
     37 H3         -3.0447    1.6595    1.0979 H         1 <0>         0.0756
     38 H4         -1.3964   -0.5549    2.4005 H         1 <0>         0.1346
     39 H5         -3.0986   -0.6872    1.8972 H         1 <0>         0.1356
     40 H6          0.5744   -2.3708    0.6073 H         1 <0>         0.1497
     41 H7          0.7724   -4.8242    0.5983 H         1 <0>         0.1407
     42 H8         -3.3096   -5.1414   -0.6289 H         1 <0>         0.1470
     43 H9         -3.5018   -2.6876   -0.6080 H         1 <0>         0.1527
     44 H10        -1.2388   -5.3401    2.3223 H         1 <0>         0.1364
     45 H11        -0.3734  -10.2108    2.3949 H         1 <0>         0.1441
     46 H12        -0.9252  -10.3138    0.0931 H         1 <0>         0.1067
     47 H13        -1.3817   -8.8479   -0.8075 H         1 <0>         0.1244
     48 H14         1.4109  -12.0770   -0.1290 H         1 <0>         0.1013
     49 H15         2.6958  -11.3712    0.8805 H         1 <0>         0.1095
     50 H16         0.9872  -11.0437    1.2570 H         1 <0>         0.1033
     51 H17        -0.1878   -9.8617    7.2602 H         1 <0>         0.1519
     52 H18        -0.0715   -9.8374    9.7414 H         1 <0>         0.1458
     53 H19        -0.4067   -7.6811   10.9295 H         1 <0>         0.1437
     54 H20        -0.8421   -5.6375    9.6289 H         1 <0>         0.1654
     55 H21        -1.0295   -5.7322    5.1963 H         1 <0>         0.4327
@<TRIPOS>BOND
     1    1    2 1
     2    1   35 1
     3    1   36 1
     4    1   37 1
     5    2    3 1
     6    2   38 1
     7    2   39 1
     8    3    4 2
     9    3    5 2
    10    3    6 1
    11    6   11 ar
    12    6    7 ar
    13    7    8 ar
    14    7   40 1
    15    8    9 ar
    16    8   41 1
    17    9   10 ar
    18    9   12 1
    19   10   11 ar
    20   10   42 1
    21   11   43 1
    22   12   13 1
    23   13   18 ar
    24   13   14 ar
    25   14   15 ar
    26   14   44 1
    27   15   28 1
    28   15   16 ar
    29   16   17 ar
    30   16   26 1
    31   17   18 ar
    32   17   45 1
    33   18   19 1
    34   19   20 1
    35   19   46 1
    36   19   47 1
    37   20   24 1
    38   20   21 2
    39   21   22 1
    40   22   23 2
    41   23   24 1
    42   24   25 1
    43   25   48 1
    44   25   49 1
    45   25   50 1
    46   26   27 2
    47   27   28 1
    48   27   29 1
    49   28   55 1
    50   29   34 ar
    51   29   30 ar
    52   30   31 ar
    53   30   51 1
    54   31   32 ar
    55   31   52 1
    56   32   33 ar
    57   32   53 1
    58   33   34 ar
    59   33   54 1
@<TRIPOS>MOLECULE
CHEMBL595353__1
   55    59     0     0     0
SMALL
USER_CHARGES

@<TRIPOS>ATOM
      1 C1          2.6829    1.3833    1.0841 C.3       1 <0>        -0.1509
      2 C2          2.5372   -0.1383    1.0178 C.3       1 <0>        -0.6077
      3 S1          0.8251   -0.5990    1.4015 S.o2      1 <0>         2.4949
      4 O1          0.5355   -0.3155    2.7635 O.2       1 <0>        -0.9329
      5 O2         -0.0442   -0.1557    0.3686 O.2       1 <0>        -0.9326
      6 C3          0.7939   -2.3573    1.2918 C.ar      1 <0>        -0.6652
      7 C4          0.5059   -2.9684    0.0853 C.ar      1 <0>        -0.0059
      8 C5          0.4808   -4.3467   -0.0034 C.ar      1 <0>        -0.1550
      9 C6          0.7448   -5.1180    1.1194 C.ar      1 <0>         0.1472
     10 C7          1.0335   -4.5021    2.3289 C.ar      1 <0>        -0.1401
     11 C8          1.0629   -3.1235    2.4109 C.ar      1 <0>        -0.0063
     12 O3          0.7203   -6.4739    1.0349 O.3       1 <0>        -0.2399
     13 C9          1.6832   -7.0848    0.2946 C.ar      1 <0>         0.1348
     14 C10         2.7176   -6.3394   -0.2345 C.ar      1 <0>        -0.1444
     15 C11         3.7076   -6.9693   -0.9961 C.ar      1 <0>         0.0967
     16 C12         3.6358   -8.3573   -1.2131 C.ar      1 <0>         0.0308
     17 C13         2.5888   -9.0912   -0.6731 C.ar      1 <0>        -0.0668
     18 C14         1.6227   -8.4593    0.0797 C.ar      1 <0>        -0.0872
     19 C15         0.4904   -9.2601    0.6692 C.3       1 <0>         0.0119
     20 C16        -0.6976   -9.2071   -0.2564 C.2       1 <0>         0.1866
     21 N1         -1.6602   -8.3175   -0.2441 N.2       1 <0>        -0.2842
     22 N2         -2.4866   -8.6124   -1.1875 N.2       1 <0>        -0.0734
     23 N3         -2.0762   -9.6670   -1.8014 N.2       1 <0>        -0.0944
     24 N4         -0.9731  -10.0605   -1.2601 N.pl3     1 <0>        -0.3080
     25 C17        -0.1728  -11.2205   -1.6604 C.3       1 <0>         0.0750
     26 N5          4.7336   -8.6828   -1.9867 N.pl3     1 <0>        -0.5747
     27 H1          4.9695   -9.5671   -2.3082 H         1 <0>         0.4327
     28 C18         5.4252   -7.5244   -2.2152 C.2       1 <0>         0.3473
     29 N6          4.8174   -6.5219   -1.6307 N.2       1 <0>        -0.4745
     30 C19         6.6733   -7.4199   -3.0036 C.ar      1 <0>         0.1733
     31 C20         7.2901   -6.1792   -3.1610 C.ar      1 <0>        -0.1154
     32 C21         8.4572   -6.0977   -3.9010 C.ar      1 <0>        -0.0734
     33 C22         8.9698   -7.2598   -4.4596 C.ar      1 <0>        -0.1535
     34 C23         8.3057   -8.4577   -4.2633 C.ar      1 <0>         0.1069
     35 N7          7.1997   -8.5089   -3.5508 N.ar      1 <0>        -0.4779
     36 H2          2.4294    1.7293    2.0861 H         1 <0>         0.0750
     37 H3          3.7117    1.6602    0.8535 H         1 <0>         0.0856
     38 H4          2.0115    1.8445    0.3598 H         1 <0>         0.0749
     39 H5          2.7907   -0.4843    0.0158 H         1 <0>         0.1359
     40 H6          3.2085   -0.5995    1.7422 H         1 <0>         0.1360
     41 H7          0.3001   -2.3677   -0.7882 H         1 <0>         0.1495
     42 H8          0.2554   -4.8236   -0.9459 H         1 <0>         0.1402
     43 H9          1.2395   -5.1001    3.2043 H         1 <0>         0.1460
     44 H10         1.2923   -2.6437    3.3509 H         1 <0>         0.1521
     45 H11         2.7621   -5.2742   -0.0616 H         1 <0>         0.1426
     46 H12         2.5331  -10.1568   -0.8398 H         1 <0>         0.1372
     47 H13         0.8056  -10.2957    0.7968 H         1 <0>         0.1054
     48 H14         0.2154   -8.8421    1.6376 H         1 <0>         0.1264
     49 H15        -0.5072  -12.1000   -1.1101 H         1 <0>         0.1013
     50 H16        -0.2933  -11.3935   -2.7298 H         1 <0>         0.1091
     51 H17         0.8775  -11.0310   -1.4390 H         1 <0>         0.1004
     52 H18         6.8631   -5.2944   -2.7124 H         1 <0>         0.1520
     53 H19         8.9574   -5.1507   -4.0406 H         1 <0>         0.1462
     54 H20         9.8784   -7.2295   -5.0426 H         1 <0>         0.1442
     55 H21         8.7022   -9.3637   -4.6972 H         1 <0>         0.1661
@<TRIPOS>BOND
     1    1    2 1
     2    1   36 1
     3    1   37 1
     4    1   38 1
     5    2    3 1
     6    2   39 1
     7    2   40 1
     8    3    4 2
     9    3    5 2
    10    3    6 1
    11    6   11 ar
    12    6    7 ar
    13    7    8 ar
    14    7   41 1
    15    8    9 ar
    16    8   42 1
    17    9   10 ar
    18    9   12 1
    19   10   11 ar
    20   10   43 1
    21   11   44 1
    22   12   13 1
    23   13   18 ar
    24   13   14 ar
    25   14   15 ar
    26   14   45 1
    27   15   29 1
    28   15   16 ar
    29   16   17 ar
    30   16   26 1
    31   17   18 ar
    32   17   46 1
    33   18   19 1
    34   19   20 1
    35   19   47 1
    36   19   48 1
    37   20   24 1
    38   20   21 2
    39   21   22 1
    40   22   23 2
    41   23   24 1
    42   24   25 1
    43   25   49 1
    44   25   50 1
    45   25   51 1
    46   26   27 1
    47   26   28 1
    48   28   29 2
    49   28   30 1
    50   30   35 ar
    51   30   31 ar
    52   31   32 ar
    53   31   52 1
    54   32   33 ar
    55   32   53 1
    56   33   34 ar
    57   33   54 1
    58   34   35 ar
    59   34   55 1
@<TRIPOS>MOLECULE
CHEMBL595122
   57    61     0     0     0
SMALL
USER_CHARGES

@<TRIPOS>ATOM
      1 C1         -1.2499    1.4099   -1.7864 C.3       1 <0>        -0.1511
      2 C2         -1.1636   -0.1136   -1.6759 C.3       1 <0>        -0.6065
      3 S1         -1.6139   -0.6245    0.0054 S.o2      1 <0>         2.4951
      4 O1         -0.6280   -0.1869    0.9305 O.2       1 <0>        -0.9344
      5 O2         -2.9920   -0.3709    0.2414 O.2       1 <0>        -0.9335
      6 C3         -1.4749   -2.3810   -0.0025 C.ar      1 <0>        -0.6687
      7 C4         -2.5660   -3.1580   -0.3455 C.ar      1 <0>        -0.0048
      8 C5         -2.4596   -4.5353   -0.3529 C.ar      1 <0>        -0.1416
      9 C6         -1.2564   -5.1388   -0.0158 C.ar      1 <0>         0.1558
     10 C7         -0.1630   -4.3566    0.3280 C.ar      1 <0>        -0.1601
     11 C8         -0.2733   -2.9797    0.3288 C.ar      1 <0>        -0.0072
     12 O3         -1.1492   -6.4933   -0.0219 O.3       1 <0>        -0.2272
     13 C9         -0.9794   -7.1253    1.1693 C.ar      1 <0>         0.1596
     14 C10        -1.0498   -6.4031    2.3478 C.ar      1 <0>        -0.2009
     15 C11        -0.8760   -7.0515    3.5620 C.ar      1 <0>         0.1025
     16 C12        -0.6297   -8.4367    3.5879 C.ar      1 <0>         0.0229
     17 C13        -0.5621   -9.1475    2.3845 C.ar      1 <0>         0.0067
     18 C14        -0.7412   -8.4972    1.1978 C.ar      1 <0>        -0.1416
     19 C15        -0.6736   -9.2699   -0.0943 C.3       1 <0>         0.1525
     20 N1          0.6459   -9.0874   -0.7041 N.am      1 <0>        -0.5706
     21 C16         0.9175   -8.0939   -1.5594 C.2       1 <0>         0.5188
     22 O4          0.1308   -7.2472   -1.9249 O.2       1 <0>        -0.4557
     23 C17         2.3624   -8.1952   -1.9972 C.3       1 <0>        -0.1586
     24 C18         2.8842   -9.4324   -1.2386 C.3       1 <0>        -0.1581
     25 C19         1.6808   -9.8969   -0.4475 C.2       1 <0>         0.5252
     26 O5          1.6569  -10.8523    0.2984 O.2       1 <0>        -0.4779
     27 N2         -0.5028   -8.7960    4.8880 N.2       1 <0>        -0.4573
     28 C20        -0.6518   -7.7433    5.6525 C.2       1 <0>         0.3280
     29 N3         -0.8852   -6.6373    4.8785 N.pl3     1 <0>        -0.5769
     30 C21        -0.5791   -7.7477    7.1304 C.ar      1 <0>         0.1788
     31 C22        -0.3287   -8.9411    7.8071 C.ar      1 <0>        -0.1178
     32 C23        -0.2636   -8.9290    9.1898 C.ar      1 <0>        -0.0732
     33 C24        -0.4511   -7.7236    9.8512 C.ar      1 <0>        -0.1566
     34 C25        -0.6958   -6.5770    9.1167 C.ar      1 <0>         0.1071
     35 N4         -0.7474   -6.6144    7.8015 N.ar      1 <0>        -0.4794
     36 H1         -0.9794    1.7169   -2.7967 H         1 <0>         0.0865
     37 H2         -2.2681    1.7328   -1.5690 H         1 <0>         0.0751
     38 H3         -0.5640    1.8655   -1.0723 H         1 <0>         0.0748
     39 H4         -1.8496   -0.5692   -2.3901 H         1 <0>         0.1365
     40 H5         -0.1455   -0.4366   -1.8934 H         1 <0>         0.1360
     41 H6         -3.5023   -2.6878   -0.6075 H         1 <0>         0.1514
     42 H7         -3.3121   -5.1418   -0.6205 H         1 <0>         0.1449
     43 H8          0.7745   -4.8239    0.5908 H         1 <0>         0.1371
     44 H9          0.5786   -2.3703    0.5920 H         1 <0>         0.1486
     45 H10        -1.2388   -5.3401    2.3223 H         1 <0>         0.1345
     46 H11        -0.3734  -10.2108    2.3949 H         1 <0>         0.1488
     47 H12        -0.8378  -10.3286    0.1065 H         1 <0>         0.1063
     48 H13        -1.4424   -8.9059   -0.7759 H         1 <0>         0.1085
     49 H14         2.4269   -8.3501   -3.0742 H         1 <0>         0.1203
     50 H15         2.9158   -7.3033   -1.7031 H         1 <0>         0.1175
     51 H16         3.2083  -10.2029   -1.9382 H         1 <0>         0.1218
     52 H17         3.6971   -9.1561   -0.5671 H         1 <0>         0.1193
     53 H18        -0.1878   -9.8617    7.2602 H         1 <0>         0.1521
     54 H19        -0.0715   -9.8374    9.7414 H         1 <0>         0.1455
     55 H20        -0.4067   -7.6811   10.9295 H         1 <0>         0.1432
     56 H21        -0.8421   -5.6375    9.6289 H         1 <0>         0.1652
     57 H22        -1.0295   -5.7322    5.1963 H         1 <0>         0.4327
@<TRIPOS>BOND
     1    1    2 1
     2    1   36 1
     3    1   37 1
     4    1   38 1
     5    2    3 1
     6    2   39 1
     7    2   40 1
     8    3    4 2
     9    3    5 2
    10    3    6 1
    11    6   11 ar
    12    6    7 ar
    13    7    8 ar
    14    7   41 1
    15    8    9 ar
    16    8   42 1
    17    9   10 ar
    18    9   12 1
    19   10   11 ar
    20   10   43 1
    21   11   44 1
    22   12   13 1
    23   13   18 ar
    24   13   14 ar
    25   14   15 ar
    26   14   45 1
    27   15   29 1
    28   15   16 ar
    29   16   17 ar
    30   16   27 1
    31   17   18 ar
    32   17   46 1
    33   18   19 1
    34   19   20 1
    35   19   47 1
    36   19   48 1
    37   20   25 am
    38   20   21 am
    39   21   22 2
    40   21   23 1
    41   23   24 1
    42   23   49 1
    43   23   50 1
    44   24   25 1
    45   24   51 1
    46   24   52 1
    47   25   26 2
    48   27   28 2
    49   28   29 1
    50   28   30 1
    51   29   57 1
    52   30   35 ar
    53   30   31 ar
    54   31   32 ar
    55   31   53 1
    56   32   33 ar
    57   32   54 1
    58   33   34 ar
    59   33   55 1
    60   34   35 ar
    61   34   56 1
@<TRIPOS>MOLECULE
CHEMBL595122__1
   57    61     0     0     0
SMALL
USER_CHARGES

@<TRIPOS>ATOM
      1 C1          2.6816    1.3837    1.0777 C.3       1 <0>        -0.1507
      2 C2          2.5359   -0.1379    1.0119 C.3       1 <0>        -0.6080
      3 S1          0.8254   -0.5990    1.4019 S.o2      1 <0>         2.4955
      4 O1          0.5408   -0.3157    2.7650 O.2       1 <0>        -0.9335
      5 O2         -0.0479   -0.1558    0.3723 O.2       1 <0>        -0.9339
      6 C3          0.7941   -2.3573    1.2920 C.ar      1 <0>        -0.6678
      7 C4          0.5017   -2.9683    0.0866 C.ar      1 <0>        -0.0060
      8 C5          0.4765   -4.3466   -0.0023 C.ar      1 <0>        -0.1589
      9 C6          0.7449   -5.1180    1.1195 C.ar      1 <0>         0.1567
     10 C7          1.0380   -4.5022    2.3280 C.ar      1 <0>        -0.1417
     11 C8          1.0675   -3.1236    2.4100 C.ar      1 <0>        -0.0051
     12 O3          0.7203   -6.4739    1.0349 O.3       1 <0>        -0.2304
     13 C9          1.6832   -7.0848    0.2946 C.ar      1 <0>         0.1315
     14 C10         2.7176   -6.3394   -0.2345 C.ar      1 <0>        -0.1526
     15 C11         3.7076   -6.9693   -0.9961 C.ar      1 <0>         0.0987
     16 C12         3.6358   -8.3573   -1.2131 C.ar      1 <0>         0.0266
     17 C13         2.5888   -9.0912   -0.6731 C.ar      1 <0>        -0.0437
     18 C14         1.6227   -8.4593    0.0797 C.ar      1 <0>        -0.1145
     19 C15         0.4904   -9.2601    0.6692 C.3       1 <0>         0.1512
     20 N1         -0.7014   -9.1114   -0.1696 N.am      1 <0>        -0.5704
     21 C16        -1.6038   -8.1407    0.0193 C.2       1 <0>         0.5177
     22 O4         -1.5496   -7.2895    0.8808 O.2       1 <0>        -0.4510
     23 C17        -2.7019   -8.2740   -1.0132 C.3       1 <0>        -0.1586
     24 C18        -2.2731   -9.5031   -1.8403 C.3       1 <0>        -0.1580
     25 C19        -0.9749   -9.9317   -1.1917 C.2       1 <0>         0.5267
     26 O5         -0.2921  -10.8706   -1.5407 O.2       1 <0>        -0.4828
     27 N2          4.7336   -8.6828   -1.9867 N.pl3     1 <0>        -0.5728
     28 H1          4.9695   -9.5671   -2.3082 H         1 <0>         0.4332
     29 C20         5.4252   -7.5244   -2.2152 C.2       1 <0>         0.3453
     30 N3          4.8174   -6.5219   -1.6307 N.2       1 <0>        -0.4763
     31 C21         6.6733   -7.4199   -3.0036 C.ar      1 <0>         0.1750
     32 C22         7.2901   -6.1792   -3.1610 C.ar      1 <0>        -0.1160
     33 C23         8.4572   -6.0977   -3.9010 C.ar      1 <0>        -0.0738
     34 C24         8.9698   -7.2598   -4.4596 C.ar      1 <0>        -0.1544
     35 C25         8.3057   -8.4577   -4.2633 C.ar      1 <0>         0.1072
     36 N4          7.1997   -8.5089   -3.5508 N.ar      1 <0>        -0.4776
     37 H2          2.4318    1.7295    2.0808 H         1 <0>         0.0749
     38 H3          3.7094    1.6607    0.8434 H         1 <0>         0.0857
     39 H4          2.0074    1.8448    0.3560 H         1 <0>         0.0747
     40 H5          2.7857   -0.4838    0.0088 H         1 <0>         0.1359
     41 H6          3.2101   -0.5991    1.7336 H         1 <0>         0.1360
     42 H7          0.2925   -2.3675   -0.7861 H         1 <0>         0.1485
     43 H8          0.2477   -4.8234   -0.9439 H         1 <0>         0.1368
     44 H9          1.2473   -5.1003    3.2025 H         1 <0>         0.1441
     45 H10         1.3002   -2.6439    3.3492 H         1 <0>         0.1510
     46 H11         2.7621   -5.2742   -0.0616 H         1 <0>         0.1402
     47 H12         2.5331  -10.1568   -0.8398 H         1 <0>         0.1419
     48 H13         0.7740  -10.3116    0.7144 H         1 <0>         0.1048
     49 H14         0.2745   -8.8985    1.6746 H         1 <0>         0.1104
     50 H15        -3.6627   -8.4527   -0.5304 H         1 <0>         0.1210
     51 H16        -2.7470   -7.3850   -1.6423 H         1 <0>         0.1187
     52 H17        -3.0206  -10.2932   -1.7690 H         1 <0>         0.1220
     53 H18        -2.1049   -9.2256   -2.8808 H         1 <0>         0.1194
     54 H19         6.8631   -5.2944   -2.7124 H         1 <0>         0.1517
     55 H20         8.9574   -5.1507   -4.0406 H         1 <0>         0.1458
     56 H21         9.8784   -7.2295   -5.0426 H         1 <0>         0.1439
     57 H22         8.7022   -9.3637   -4.6972 H         1 <0>         0.1660
@<TRIPOS>BOND
     1    1    2 1
     2    1   37 1
     3    1   38 1
     4    1   39 1
     5    2    3 1
     6    2   40 1
     7    2   41 1
     8    3    4 2
     9    3    5 2
    10    3    6 1
    11    6   11 ar
    12    6    7 ar
    13    7    8 ar
    14    7   42 1
    15    8    9 ar
    16    8   43 1
    17    9   10 ar
    18    9   12 1
    19   10   11 ar
    20   10   44 1
    21   11   45 1
    22   12   13 1
    23   13   18 ar
    24   13   14 ar
    25   14   15 ar
    26   14   46 1
    27   15   30 1
    28   15   16 ar
    29   16   17 ar
    30   16   27 1
    31   17   18 ar
    32   17   47 1
    33   18   19 1
    34   19   20 1
    35   19   48 1
    36   19   49 1
    37   20   25 am
    38   20   21 am
    39   21   22 2
    40   21   23 1
    41   23   24 1
    42   23   50 1
    43   23   51 1
    44   24   25 1
    45   24   52 1
    46   24   53 1
    47   25   26 2
    48   27   28 1
    49   27   29 1
    50   29   30 2
    51   29   31 1
    52   31   36 ar
    53   31   32 ar
    54   32   33 ar
    55   32   54 1
    56   33   34 ar
    57   33   55 1
    58   34   35 ar
    59   34   56 1
    60   35   36 ar
    61   35   57 1
@<TRIPOS>MOLECULE
CHEMBL194102
   55    58     0     0     0
SMALL
USER_CHARGES

@<TRIPOS>ATOM
      1 C1         -0.0099    1.3896    0.0089 C.ar      1 <0>        -0.1089
      2 C2          1.1783    2.0960    0.0028 C.ar      1 <0>        -0.1231
      3 C3          2.3841    1.4203   -0.0122 C.ar      1 <0>        -0.0940
      4 C4          2.4018    0.0381   -0.0207 C.ar      1 <0>        -0.0983
      5 C5          1.2136   -0.6684   -0.0137 C.ar      1 <0>        -0.0941
      6 C6          0.0078    0.0073   -0.0002 C.ar      1 <0>        -0.1232
      7 C7          3.7163   -0.6986   -0.0380 C.3       1 <0>         0.1007
      8 O1          4.1451   -0.9396    1.3037 O.3       1 <0>        -0.3000
      9 C8          5.3221   -1.5993    1.4663 C.ar      1 <0>         0.1650
     10 C9          5.7928   -1.8702    2.7404 C.ar      1 <0>        -0.1260
     11 C10         7.0014   -2.5476    2.9061 C.ar      1 <0>        -0.0468
     12 C11         7.7307   -2.9492    1.7864 C.ar      1 <0>        -0.1580
     13 C12         7.2527   -2.6741    0.5159 C.ar      1 <0>         0.1645
     14 C13         6.0477   -2.0053    0.3557 C.ar      1 <0>        -0.2794
     15 O2          7.9625   -3.0643   -0.5755 O.3       1 <0>        -0.3020
     16 C14         7.4109   -2.7481   -1.8552 C.3       1 <0>         0.1009
     17 C15         8.3292   -3.2550   -2.9372 C.ar      1 <0>        -0.0983
     18 C16         9.3383   -2.4446   -3.4231 C.ar      1 <0>        -0.0941
     19 C17        10.1807   -2.9096   -4.4156 C.ar      1 <0>        -0.1231
     20 C18        10.0143   -4.1851   -4.9219 C.ar      1 <0>        -0.1088
     21 C19         9.0058   -4.9958   -4.4354 C.ar      1 <0>        -0.1232
     22 C20         8.1662   -4.5323   -3.4399 C.ar      1 <0>        -0.0943
     23 C21         7.5079   -2.8386    4.2640 C.2       1 <0>         0.5458
     24 O3          6.8714   -2.4877    5.2382 O.2       1 <0>        -0.4547
     25 N1          8.6755   -3.4930    4.4219 N.am      1 <0>        -0.6517
     26 C22         9.2036   -3.6733    5.6925 C.ar      1 <0>         0.3357
     27 C23        10.4608   -4.2566    5.8370 C.ar      1 <0>        -0.2168
     28 C24        10.9795   -4.4328    7.0913 C.ar      1 <0>        -0.0207
     29 C25        10.2183   -4.0154    8.1953 C.ar      1 <0>        -0.2058
     30 C26         8.9650   -3.4380    7.9750 C.ar      1 <0>         0.1548
     31 N2          8.5069   -3.2830    6.7508 N.ar      1 <0>        -0.4858
     32 C27        10.7329   -4.1840    9.5645 C.2       1 <0>         0.5270
     33 O4         11.8312   -4.6910    9.7469 O.co2     1 <0>        -0.6877
     34 O5         10.0623   -3.8172   10.5195 O.co2     1 <0>        -0.6838
     35 H1         -0.9519    1.9175    0.0251 H         1 <0>         0.1243
     36 H2          1.1645    3.1759    0.0095 H         1 <0>         0.1257
     37 H3          3.3124    1.9722   -0.0176 H         1 <0>         0.1248
     38 H4          1.2274   -1.7483   -0.0211 H         1 <0>         0.1248
     39 H5         -0.9205   -0.5446    0.0049 H         1 <0>         0.1257
     40 H6          3.5932   -1.6495   -0.5564 H         1 <0>         0.0719
     41 H7          4.4633   -0.0967   -0.5556 H         1 <0>         0.0719
     42 H8          5.2253   -1.5574    3.6044 H         1 <0>         0.1493
     43 H9          8.6668   -3.4734    1.9102 H         1 <0>         0.1371
     44 H10         5.6755   -1.7966   -0.6364 H         1 <0>         0.1368
     45 H11         6.4340   -3.2209   -1.9567 H         1 <0>         0.0719
     46 H12         7.3028   -1.6673   -1.9472 H         1 <0>         0.0720
     47 H13         9.4682   -1.4481   -3.0275 H         1 <0>         0.1248
     48 H14        10.9686   -2.2762   -4.7957 H         1 <0>         0.1257
     49 H15        10.6720   -4.5481   -5.6978 H         1 <0>         0.1244
     50 H16         8.8756   -5.9922   -4.8312 H         1 <0>         0.1257
     51 H17         7.3806   -5.1670   -3.0571 H         1 <0>         0.1247
     52 H18         9.1467   -3.8380    3.6474 H         1 <0>         0.4130
     53 H19        11.0206   -4.5671    4.9672 H         1 <0>         0.1272
     54 H20        11.9516   -4.8828    7.2288 H         1 <0>         0.1405
     55 H21         8.3694   -3.1130    8.8153 H         1 <0>         0.1660
@<TRIPOS>BOND
     1    1    6 ar
     2    1    2 ar
     3    1   35 1
     4    2    3 ar
     5    2   36 1
     6    3    4 ar
     7    3   37 1
     8    4    5 ar
     9    4    7 1
    10    5    6 ar
    11    5   38 1
    12    6   39 1
    13    7    8 1
    14    7   40 1
    15    7   41 1
    16    8    9 1
    17    9   14 ar
    18    9   10 ar
    19   10   11 ar
    20   10   42 1
    21   11   12 ar
    22   11   23 1
    23   12   13 ar
    24   12   43 1
    25   13   14 ar
    26   13   15 1
    27   14   44 1
    28   15   16 1
    29   16   17 1
    30   16   45 1
    31   16   46 1
    32   17   22 ar
    33   17   18 ar
    34   18   19 ar
    35   18   47 1
    36   19   20 ar
    37   19   48 1
    38   20   21 ar
    39   20   49 1
    40   21   22 ar
    41   21   50 1
    42   22   51 1
    43   23   24 2
    44   23   25 am
    45   25   26 1
    46   25   52 1
    47   26   31 ar
    48   26   27 ar
    49   27   28 ar
    50   27   53 1
    51   28   29 ar
    52   28   54 1
    53   29   30 ar
    54   29   32 1
    55   30   31 ar
    56   30   55 1
    57   32   33 2
    58   32   34 1
@<TRIPOS>MOLECULE
CHEMBL559057
   61    65     0     0     0
SMALL
USER_CHARGES

@<TRIPOS>ATOM
      1 C1         -2.2978    1.3109    1.8112 C.3       1 <0>        -0.1511
      2 C2         -2.1432   -0.2062    1.6872 C.3       1 <0>        -0.6077
      3 S1         -1.6129   -0.6244    0.0036 S.o2      1 <0>         2.4950
      4 O1         -2.6525   -0.3387   -0.9221 O.2       1 <0>        -0.9321
      5 O2         -0.2911   -0.1551   -0.2239 O.2       1 <0>        -0.9320
      6 C3         -1.4741   -2.3809   -0.0043 C.ar      1 <0>        -0.6661
      7 C4         -0.2755   -2.9800    0.3370 C.ar      1 <0>        -0.0071
      8 C5         -0.1641   -4.3568    0.3320 C.ar      1 <0>        -0.1591
      9 C6         -1.2563   -5.1388   -0.0158 C.ar      1 <0>         0.1447
     10 C7         -2.4580   -4.5351   -0.3578 C.ar      1 <0>        -0.1404
     11 C8         -2.5655   -3.1579   -0.3462 C.ar      1 <0>        -0.0063
     12 O3         -1.1492   -6.4933   -0.0219 O.3       1 <0>        -0.2480
     13 C9         -0.9794   -7.1253    1.1693 C.ar      1 <0>         0.1570
     14 C10        -1.0498   -6.4031    2.3478 C.ar      1 <0>        -0.1951
     15 C11        -0.8760   -7.0515    3.5620 C.ar      1 <0>         0.0928
     16 C12        -0.6297   -8.4367    3.5879 C.ar      1 <0>         0.0307
     17 C13        -0.5621   -9.1475    2.3845 C.ar      1 <0>        -0.0027
     18 C14        -0.7412   -8.4972    1.1978 C.ar      1 <0>        -0.1060
     19 C15        -0.6736   -9.2699   -0.0943 C.3       1 <0>         0.1885
     20 C16        -2.0998   -9.5858   -0.5921 C.3       1 <0>        -0.1216
     21 C17        -1.9583  -11.0211   -1.1642 C.3       1 <0>        -0.1331
     22 C18        -0.9341  -11.6467   -0.1847 C.3       1 <0>         0.0956
     23 N1          0.0062  -10.5547    0.1264 N.am      1 <0>        -0.6200
     24 C19         1.2785  -10.7086    0.5436 C.2       1 <0>         0.5243
     25 O4          1.9644   -9.7344    0.7705 O.2       1 <0>        -0.5317
     26 C20         1.8489  -12.0912    0.7282 C.3       1 <0>        -0.1725
     27 N2         -0.5028   -8.7960    4.8880 N.2       1 <0>        -0.4599
     28 C21        -0.6518   -7.7433    5.6525 C.2       1 <0>         0.3252
     29 N3         -0.8852   -6.6373    4.8785 N.pl3     1 <0>        -0.5774
     30 C22        -0.5791   -7.7477    7.1304 C.ar      1 <0>         0.1811
     31 C23        -0.3287   -8.9411    7.8071 C.ar      1 <0>        -0.1186
     32 C24        -0.2636   -8.9290    9.1898 C.ar      1 <0>        -0.0729
     33 C25        -0.4511   -7.7236    9.8512 C.ar      1 <0>        -0.1577
     34 C26        -0.6958   -6.5770    9.1167 C.ar      1 <0>         0.1067
     35 N4         -0.7474   -6.6144    7.8015 N.ar      1 <0>        -0.4803
     36 H1         -2.6165    1.5621    2.8229 H         1 <0>         0.0860
     37 H2         -1.3425    1.7918    1.6012 H         1 <0>         0.0753
     38 H3         -3.0447    1.6595    1.0979 H         1 <0>         0.0755
     39 H4         -1.3964   -0.5549    2.4005 H         1 <0>         0.1350
     40 H5         -3.0986   -0.6872    1.8972 H         1 <0>         0.1357
     41 H6          0.5744   -2.3708    0.6072 H         1 <0>         0.1502
     42 H7          0.7724   -4.8242    0.5983 H         1 <0>         0.1434
     43 H8         -3.3096   -5.1414   -0.6288 H         1 <0>         0.1464
     44 H9         -3.5018   -2.6876   -0.6080 H         1 <0>         0.1526
     45 H10        -1.2388   -5.3401    2.3223 H         1 <0>         0.1333
     46 H11        -0.3734  -10.2108    2.3949 H         1 <0>         0.1359
     47 H12        -0.1363   -8.6903   -0.8450 H         1 <0>         0.0917
     48 H13        -2.8096   -9.5685    0.2350 H         1 <0>         0.0801
     49 H14        -2.3992   -8.8871   -1.3733 H         1 <0>         0.0886
     50 H15        -2.9094  -11.5521   -1.1267 H         1 <0>         0.0883
     51 H16        -1.5643  -10.9996   -2.1803 H         1 <0>         0.0796
     52 H17        -1.4348  -11.9860    0.7221 H         1 <0>         0.0731
     53 H18        -0.4096  -12.4745   -0.6619 H         1 <0>         0.0826
     54 H19         1.0908  -12.8334    0.4781 H         1 <0>         0.0780
     55 H20         2.7117  -12.2186    0.0744 H         1 <0>         0.0957
     56 H21         2.1567  -12.2217    1.7657 H         1 <0>         0.0963
     57 H22        -0.1878   -9.8617    7.2602 H         1 <0>         0.1514
     58 H23        -0.0715   -9.8374    9.7414 H         1 <0>         0.1451
     59 H24        -0.4067   -7.6811   10.9295 H         1 <0>         0.1429
     60 H25        -0.8421   -5.6375    9.6289 H         1 <0>         0.1646
     61 H26        -1.0295   -5.7322    5.1963 H         1 <0>         0.4307
@<TRIPOS>BOND
     1    1    2 1
     2    1   36 1
     3    1   37 1
     4    1   38 1
     5    2    3 1
     6    2   39 1
     7    2   40 1
     8    3    4 2
     9    3    5 2
    10    3    6 1
    11    6   11 ar
    12    6    7 ar
    13    7    8 ar
    14    7   41 1
    15    8    9 ar
    16    8   42 1
    17    9   10 ar
    18    9   12 1
    19   10   11 ar
    20   10   43 1
    21   11   44 1
    22   12   13 1
    23   13   18 ar
    24   13   14 ar
    25   14   15 ar
    26   14   45 1
    27   15   29 1
    28   15   16 ar
    29   16   17 ar
    30   16   27 1
    31   17   18 ar
    32   17   46 1
    33   18   19 1
    34   19   23 1
    35   19   20 1
    36   19   47 1
    37   20   21 1
    38   20   48 1
    39   20   49 1
    40   21   22 1
    41   21   50 1
    42   21   51 1
    43   22   23 1
    44   22   52 1
    45   22   53 1
    46   23   24 am
    47   24   25 2
    48   24   26 1
    49   26   54 1
    50   26   55 1
    51   26   56 1
    52   27   28 2
    53   28   29 1
    54   28   30 1
    55   29   61 1
    56   30   35 ar
    57   30   31 ar
    58   31   32 ar
    59   31   57 1
    60   32   33 ar
    61   32   58 1
    62   33   34 ar
    63   33   59 1
    64   34   35 ar
    65   34   60 1
@<TRIPOS>MOLECULE
CHEMBL559057__1
   61    65     0     0     0
SMALL
USER_CHARGES

@<TRIPOS>ATOM
      1 C1         -2.2963    1.3118    1.8099 C.3       1 <0>        -0.1508
      2 C2         -2.1424   -0.2054    1.6864 C.3       1 <0>        -0.6076
      3 S1         -1.6120   -0.6243    0.0030 S.o2      1 <0>         2.4952
      4 O1         -2.6512   -0.3384   -0.9230 O.2       1 <0>        -0.9335
      5 O2         -0.2899   -0.1558   -0.2244 O.2       1 <0>        -0.9331
      6 C3         -1.4739   -2.3809   -0.0043 C.ar      1 <0>        -0.6659
      7 C4         -0.2757   -2.9804    0.3373 C.ar      1 <0>        -0.0057
      8 C5         -0.1648   -4.3573    0.3324 C.ar      1 <0>        -0.1581
      9 C6         -1.2572   -5.1389   -0.0158 C.ar      1 <0>         0.1457
     10 C7         -2.4585   -4.5347   -0.3582 C.ar      1 <0>        -0.1408
     11 C8         -2.5657   -3.1575   -0.3461 C.ar      1 <0>        -0.0064
     12 O3         -1.1506   -6.4935   -0.0218 O.3       1 <0>        -0.2516
     13 C9         -0.9811   -7.1257    1.1697 C.ar      1 <0>         0.1256
     14 C10        -1.0514   -6.4047    2.3448 C.ar      1 <0>        -0.1440
     15 C11        -0.8768   -7.0566    3.5701 C.ar      1 <0>         0.0873
     16 C12        -0.6313   -8.4416    3.5887 C.ar      1 <0>         0.0368
     17 C13        -0.5643   -9.1508    2.3975 C.ar      1 <0>        -0.0546
     18 C14        -0.7434   -8.4975    1.1974 C.ar      1 <0>        -0.0762
     19 C15        -0.6756   -9.2717   -0.0938 C.3       1 <0>         0.1869
     20 C16        -2.1017   -9.5878   -0.5917 C.3       1 <0>        -0.1209
     21 C17        -1.9604  -11.0237   -1.1621 C.3       1 <0>        -0.1331
     22 C18        -0.9367  -11.6485   -0.1816 C.3       1 <0>         0.0965
     23 N1          0.0038  -10.5564    0.1286 N.am      1 <0>        -0.6203
     24 C19         1.2759  -10.7103    0.5463 C.2       1 <0>         0.5223
     25 O4          1.9620   -9.7360    0.7723 O.2       1 <0>        -0.5300
     26 C20         1.8458  -12.0929    0.7327 C.3       1 <0>        -0.1718
     27 N2         -0.5049   -8.7919    4.9194 N.pl3     1 <0>        -0.5744
     28 H1         -0.3306   -9.6806    5.2667 H         1 <0>         0.4309
     29 C21        -0.6707   -7.6503    5.6556 C.2       1 <0>         0.3383
     30 N3         -0.8887   -6.6350    4.8572 N.2       1 <0>        -0.4734
     31 C22        -0.6132   -7.5744    7.1325 C.ar      1 <0>         0.1780
     32 C23        -0.8044   -6.3491    7.7700 C.ar      1 <0>        -0.1172
     33 C24        -0.7481   -6.2943    9.1521 C.ar      1 <0>        -0.0735
     34 C25        -0.5023   -7.4669    9.8520 C.ar      1 <0>        -0.1562
     35 C26        -0.3218   -8.6485    9.1549 C.ar      1 <0>         0.1069
     36 N4         -0.3853   -8.6745    7.8401 N.ar      1 <0>        -0.4787
     37 H2         -2.6150    1.5635    2.8214 H         1 <0>         0.0859
     38 H3         -1.3407    1.7922    1.6000 H         1 <0>         0.0749
     39 H4         -3.0428    1.6606    1.0964 H         1 <0>         0.0749
     40 H5         -1.3959   -0.5542    2.4000 H         1 <0>         0.1363
     41 H6         -3.0980   -0.6858    1.8964 H         1 <0>         0.1362
     42 H7          0.5744   -2.3716    0.6079 H         1 <0>         0.1500
     43 H8          0.7715   -4.8251    0.5989 H         1 <0>         0.1429
     44 H9         -3.3102   -5.1407   -0.6295 H         1 <0>         0.1454
     45 H10        -3.5018   -2.6869   -0.6079 H         1 <0>         0.1519
     46 H11        -1.2400   -5.3416    2.3182 H         1 <0>         0.1394
     47 H12        -0.3755  -10.2141    2.4113 H         1 <0>         0.1291
     48 H13        -0.1379   -8.6932   -0.8450 H         1 <0>         0.0939
     49 H14        -2.8118   -9.5694    0.2351 H         1 <0>         0.0801
     50 H15        -2.4007   -8.8898   -1.3738 H         1 <0>         0.0902
     51 H16        -2.9117  -11.5545   -1.1244 H         1 <0>         0.0886
     52 H17        -1.5661  -11.0035   -2.1781 H         1 <0>         0.0803
     53 H18        -1.4378  -11.9867    0.7254 H         1 <0>         0.0712
     54 H19        -0.4123  -12.4770   -0.6577 H         1 <0>         0.0818
     55 H20         2.3040  -12.4256   -0.1988 H         1 <0>         0.0957
     56 H21         2.5985  -12.0724    1.5208 H         1 <0>         0.0937
     57 H22         1.0472  -12.7806    1.0107 H         1 <0>         0.0797
     58 H23        -0.9934   -5.4555    7.1938 H         1 <0>         0.1514
     59 H24        -0.8919   -5.3597    9.6739 H         1 <0>         0.1453
     60 H25        -0.4520   -7.4574   10.9308 H         1 <0>         0.1433
     61 H26        -0.1300   -9.5627    9.6970 H         1 <0>         0.1653
@<TRIPOS>BOND
     1    1    2 1
     2    1   37 1
     3    1   38 1
     4    1   39 1
     5    2    3 1
     6    2   40 1
     7    2   41 1
     8    3    4 2
     9    3    5 2
    10    3    6 1
    11    6   11 ar
    12    6    7 ar
    13    7    8 ar
    14    7   42 1
    15    8    9 ar
    16    8   43 1
    17    9   10 ar
    18    9   12 1
    19   10   11 ar
    20   10   44 1
    21   11   45 1
    22   12   13 1
    23   13   18 ar
    24   13   14 ar
    25   14   15 ar
    26   14   46 1
    27   15   30 1
    28   15   16 ar
    29   16   17 ar
    30   16   27 1
    31   17   18 ar
    32   17   47 1
    33   18   19 1
    34   19   23 1
    35   19   20 1
    36   19   48 1
    37   20   21 1
    38   20   49 1
    39   20   50 1
    40   21   22 1
    41   21   51 1
    42   21   52 1
    43   22   23 1
    44   22   53 1
    45   22   54 1
    46   23   24 am
    47   24   25 2
    48   24   26 1
    49   26   55 1
    50   26   56 1
    51   26   57 1
    52   27   28 1
    53   27   29 1
    54   29   30 2
    55   29   31 1
    56   31   36 ar
    57   31   32 ar
    58   32   33 ar
    59   32   58 1
    60   33   34 ar
    61   33   59 1
    62   34   35 ar
    63   34   60 1
    64   35   36 ar
    65   35   61 1
@<TRIPOS>MOLECULE
CHEMBL559057__2
   61    65     0     0     0
SMALL
USER_CHARGES

@<TRIPOS>ATOM
      1 C1         -2.2978    1.3109    1.8112 C.3       1 <0>        -0.1511
      2 C2         -2.1433   -0.2062    1.6872 C.3       1 <0>        -0.6078
      3 S1         -1.6129   -0.6244    0.0036 S.o2      1 <0>         2.4951
      4 O1         -2.6525   -0.3387   -0.9221 O.2       1 <0>        -0.9319
      5 O2         -0.2911   -0.1551   -0.2239 O.2       1 <0>        -0.9324
      6 C3         -1.4741   -2.3809   -0.0043 C.ar      1 <0>        -0.6662
      7 C4         -0.2755   -2.9800    0.3370 C.ar      1 <0>        -0.0080
      8 C5         -0.1641   -4.3568    0.3320 C.ar      1 <0>        -0.1596
      9 C6         -1.2563   -5.1388   -0.0158 C.ar      1 <0>         0.1448
     10 C7         -2.4580   -4.5351   -0.3578 C.ar      1 <0>        -0.1398
     11 C8         -2.5655   -3.1579   -0.3462 C.ar      1 <0>        -0.0054
     12 O3         -1.1492   -6.4933   -0.0219 O.3       1 <0>        -0.2482
     13 C9         -0.9794   -7.1253    1.1693 C.ar      1 <0>         0.1579
     14 C10        -1.0498   -6.4031    2.3478 C.ar      1 <0>        -0.1949
     15 C11        -0.8760   -7.0515    3.5620 C.ar      1 <0>         0.0930
     16 C12        -0.6297   -8.4367    3.5879 C.ar      1 <0>         0.0307
     17 C13        -0.5621   -9.1475    2.3845 C.ar      1 <0>        -0.0050
     18 C14        -0.7412   -8.4972    1.1978 C.ar      1 <0>        -0.1047
     19 C15        -0.6736   -9.2699   -0.0943 C.3       1 <0>         0.1879
     20 C16         0.7558   -9.2024   -0.6721 C.3       1 <0>        -0.1227
     21 C17         0.9663  -10.6284   -1.2461 C.3       1 <0>        -0.1328
     22 C18         0.1987  -11.4946   -0.2164 C.3       1 <0>         0.0954
     23 N1         -0.9776  -10.6868    0.1540 N.am      1 <0>        -0.6196
     24 C19        -2.1391  -11.1675    0.6401 C.2       1 <0>         0.5250
     25 O4         -3.0436  -10.4068    0.9123 O.2       1 <0>        -0.5319
     26 C20        -2.3138  -12.6501    0.8455 C.3       1 <0>        -0.1723
     27 N2         -0.5028   -8.7960    4.8880 N.2       1 <0>        -0.4602
     28 C21        -0.6518   -7.7433    5.6525 C.2       1 <0>         0.3253
     29 N3         -0.8852   -6.6373    4.8785 N.pl3     1 <0>        -0.5774
     30 C22        -0.5791   -7.7477    7.1304 C.ar      1 <0>         0.1811
     31 C23        -0.3287   -8.9411    7.8071 C.ar      1 <0>        -0.1186
     32 C24        -0.2636   -8.9290    9.1898 C.ar      1 <0>        -0.0730
     33 C25        -0.4511   -7.7236    9.8512 C.ar      1 <0>        -0.1577
     34 C26        -0.6958   -6.5770    9.1167 C.ar      1 <0>         0.1067
     35 N4         -0.7474   -6.6144    7.8015 N.ar      1 <0>        -0.4803
     36 H1         -2.6165    1.5621    2.8229 H         1 <0>         0.0861
     37 H2         -1.3425    1.7918    1.6012 H         1 <0>         0.0753
     38 H3         -3.0447    1.6595    1.0979 H         1 <0>         0.0756
     39 H4         -1.3964   -0.5549    2.4005 H         1 <0>         0.1350
     40 H5         -3.0986   -0.6872    1.8972 H         1 <0>         0.1358
     41 H6          0.5744   -2.3708    0.6073 H         1 <0>         0.1502
     42 H7          0.7724   -4.8242    0.5983 H         1 <0>         0.1430
     43 H8         -3.3096   -5.1414   -0.6289 H         1 <0>         0.1465
     44 H9         -3.5018   -2.6876   -0.6080 H         1 <0>         0.1526
     45 H10        -1.2388   -5.3401    2.3223 H         1 <0>         0.1333
     46 H11        -0.3734  -10.2108    2.3949 H         1 <0>         0.1365
     47 H12        -1.3851   -8.8580   -0.8100 H         1 <0>         0.0924
     48 H13         0.8170   -8.4552   -1.4634 H         1 <0>         0.0880
     49 H14         1.4803   -8.9925    0.1147 H         1 <0>         0.0802
     50 H15         0.5253  -10.7190   -2.2388 H         1 <0>         0.0797
     51 H16         2.0243  -10.8897   -1.2650 H         1 <0>         0.0884
     52 H17        -0.1145  -12.4349   -0.6701 H         1 <0>         0.0827
     53 H18         0.8202  -11.6832    0.6589 H         1 <0>         0.0730
     54 H19        -1.4021  -13.1681    0.5479 H         1 <0>         0.0779
     55 H20        -2.5181  -12.8496    1.8975 H         1 <0>         0.0960
     56 H21        -3.1476  -13.0051    0.2398 H         1 <0>         0.0954
     57 H22        -0.1878   -9.8617    7.2602 H         1 <0>         0.1514
     58 H23        -0.0715   -9.8374    9.7414 H         1 <0>         0.1451
     59 H24        -0.4067   -7.6811   10.9295 H         1 <0>         0.1429
     60 H25        -0.8421   -5.6375    9.6289 H         1 <0>         0.1646
     61 H26        -1.0295   -5.7322    5.1963 H         1 <0>         0.4307
@<TRIPOS>BOND
     1    1    2 1
     2    1   36 1
     3    1   37 1
     4    1   38 1
     5    2    3 1
     6    2   39 1
     7    2   40 1
     8    3    4 2
     9    3    5 2
    10    3    6 1
    11    6   11 ar
    12    6    7 ar
    13    7    8 ar
    14    7   41 1
    15    8    9 ar
    16    8   42 1
    17    9   10 ar
    18    9   12 1
    19   10   11 ar
    20   10   43 1
    21   11   44 1
    22   12   13 1
    23   13   18 ar
    24   13   14 ar
    25   14   15 ar
    26   14   45 1
    27   15   29 1
    28   15   16 ar
    29   16   17 ar
    30   16   27 1
    31   17   18 ar
    32   17   46 1
    33   18   19 1
    34   19   23 1
    35   19   20 1
    36   19   47 1
    37   20   21 1
    38   20   48 1
    39   20   49 1
    40   21   22 1
    41   21   50 1
    42   21   51 1
    43   22   23 1
    44   22   52 1
    45   22   53 1
    46   23   24 am
    47   24   25 2
    48   24   26 1
    49   26   54 1
    50   26   55 1
    51   26   56 1
    52   27   28 2
    53   28   29 1
    54   28   30 1
    55   29   61 1
    56   30   35 ar
    57   30   31 ar
    58   31   32 ar
    59   31   57 1
    60   32   33 ar
    61   32   58 1
    62   33   34 ar
    63   33   59 1
    64   34   35 ar
    65   34   60 1
@<TRIPOS>MOLECULE
CHEMBL559057__3
   61    65     0     0     0
SMALL
USER_CHARGES

@<TRIPOS>ATOM
      1 C1         -2.2963    1.3118    1.8099 C.3       1 <0>        -0.1508
      2 C2         -2.1424   -0.2054    1.6864 C.3       1 <0>        -0.6077
      3 S1         -1.6120   -0.6243    0.0030 S.o2      1 <0>         2.4953
      4 O1         -2.6512   -0.3384   -0.9230 O.2       1 <0>        -0.9333
      5 O2         -0.2899   -0.1558   -0.2244 O.2       1 <0>        -0.9335
      6 C3         -1.4739   -2.3809   -0.0043 C.ar      1 <0>        -0.6659
      7 C4         -0.2757   -2.9804    0.3373 C.ar      1 <0>        -0.0065
      8 C5         -0.1648   -4.3573    0.3324 C.ar      1 <0>        -0.1585
      9 C6         -1.2572   -5.1389   -0.0158 C.ar      1 <0>         0.1457
     10 C7         -2.4585   -4.5347   -0.3582 C.ar      1 <0>        -0.1401
     11 C8         -2.5656   -3.1575   -0.3462 C.ar      1 <0>        -0.0055
     12 O3         -1.1506   -6.4935   -0.0218 O.3       1 <0>        -0.2518
     13 C9         -0.9811   -7.1257    1.1697 C.ar      1 <0>         0.1265
     14 C10        -1.0514   -6.4047    2.3448 C.ar      1 <0>        -0.1436
     15 C11        -0.8768   -7.0566    3.5701 C.ar      1 <0>         0.0875
     16 C12        -0.6313   -8.4416    3.5887 C.ar      1 <0>         0.0368
     17 C13        -0.5643   -9.1508    2.3975 C.ar      1 <0>        -0.0571
     18 C14        -0.7434   -8.4975    1.1974 C.ar      1 <0>        -0.0748
     19 C15        -0.6756   -9.2717   -0.0938 C.3       1 <0>         0.1862
     20 C16         0.7540   -9.2052   -0.6712 C.3       1 <0>        -0.1219
     21 C17         0.9643  -10.6320   -1.2436 C.3       1 <0>        -0.1331
     22 C18         0.1961  -11.4968   -0.2132 C.3       1 <0>         0.0960
     23 N1         -0.9801  -10.6882    0.1560 N.am      1 <0>        -0.6195
     24 C19        -2.1418  -11.1681    0.6423 C.2       1 <0>         0.5226
     25 O4         -3.0463  -10.4068    0.9133 O.2       1 <0>        -0.5301
     26 C20        -2.3171  -12.6505    0.8492 C.3       1 <0>        -0.1717
     27 N2         -0.5049   -8.7919    4.9194 N.pl3     1 <0>        -0.5747
     28 H1         -0.3306   -9.6806    5.2667 H         1 <0>         0.4308
     29 C21        -0.6707   -7.6503    5.6556 C.2       1 <0>         0.3384
     30 N3         -0.8887   -6.6350    4.8572 N.2       1 <0>        -0.4733
     31 C22        -0.6132   -7.5744    7.1325 C.ar      1 <0>         0.1779
     32 C23        -0.8044   -6.3491    7.7700 C.ar      1 <0>        -0.1171
     33 C24        -0.7481   -6.2943    9.1521 C.ar      1 <0>        -0.0735
     34 C25        -0.5023   -7.4669    9.8520 C.ar      1 <0>        -0.1561
     35 C26        -0.3218   -8.6485    9.1549 C.ar      1 <0>         0.1068
     36 N4         -0.3853   -8.6745    7.8401 N.ar      1 <0>        -0.4787
     37 H2         -2.6151    1.5635    2.8214 H         1 <0>         0.0859
     38 H3         -1.3407    1.7922    1.6000 H         1 <0>         0.0749
     39 H4         -3.0429    1.6606    1.0963 H         1 <0>         0.0749
     40 H5         -1.3959   -0.5542    2.4000 H         1 <0>         0.1363
     41 H6         -3.0981   -0.6858    1.8963 H         1 <0>         0.1363
     42 H7          0.5744   -2.3716    0.6079 H         1 <0>         0.1501
     43 H8          0.7715   -4.8251    0.5990 H         1 <0>         0.1425
     44 H9         -3.3102   -5.1407   -0.6295 H         1 <0>         0.1456
     45 H10        -3.5018   -2.6869   -0.6080 H         1 <0>         0.1520
     46 H11        -1.2400   -5.3416    2.3182 H         1 <0>         0.1394
     47 H12        -0.3755  -10.2141    2.4113 H         1 <0>         0.1294
     48 H13        -1.3868   -8.8604   -0.8102 H         1 <0>         0.0949
     49 H14         0.8156   -8.4590   -1.4633 H         1 <0>         0.0896
     50 H15         1.4783   -8.9947    0.1156 H         1 <0>         0.0801
     51 H16         0.5236  -10.7236   -2.2363 H         1 <0>         0.0805
     52 H17         2.0223  -10.8936   -1.2618 H         1 <0>         0.0886
     53 H18        -0.1172  -12.4375   -0.6659 H         1 <0>         0.0824
     54 H19         0.8173  -11.6846    0.6626 H         1 <0>         0.0711
     55 H20        -1.9961  -12.9172    1.8562 H         1 <0>         0.0924
     56 H21        -3.3670  -12.9136    0.7208 H         1 <0>         0.0946
     57 H22        -1.7148  -13.1928    0.1204 H         1 <0>         0.0815
     58 H23        -0.9934   -5.4555    7.1938 H         1 <0>         0.1515
     59 H24        -0.8919   -5.3597    9.6739 H         1 <0>         0.1454
     60 H25        -0.4520   -7.4574   10.9308 H         1 <0>         0.1433
     61 H26        -0.1300   -9.5627    9.6970 H         1 <0>         0.1653
@<TRIPOS>BOND
     1    1    2 1
     2    1   37 1
     3    1   38 1
     4    1   39 1
     5    2    3 1
     6    2   40 1
     7    2   41 1
     8    3    4 2
     9    3    5 2
    10    3    6 1
    11    6   11 ar
    12    6    7 ar
    13    7    8 ar
    14    7   42 1
    15    8    9 ar
    16    8   43 1
    17    9   10 ar
    18    9   12 1
    19   10   11 ar
    20   10   44 1
    21   11   45 1
    22   12   13 1
    23   13   18 ar
    24   13   14 ar
    25   14   15 ar
    26   14   46 1
    27   15   30 1
    28   15   16 ar
    29   16   17 ar
    30   16   27 1
    31   17   18 ar
    32   17   47 1
    33   18   19 1
    34   19   23 1
    35   19   20 1
    36   19   48 1
    37   20   21 1
    38   20   49 1
    39   20   50 1
    40   21   22 1
    41   21   51 1
    42   21   52 1
    43   22   23 1
    44   22   53 1
    45   22   54 1
    46   23   24 am
    47   24   25 2
    48   24   26 1
    49   26   55 1
    50   26   56 1
    51   26   57 1
    52   27   28 1
    53   27   29 1
    54   29   30 2
    55   29   31 1
    56   31   36 ar
    57   31   32 ar
    58   32   33 ar
    59   32   58 1
    60   33   34 ar
    61   33   59 1
    62   34   35 ar
    63   34   60 1
    64   35   36 ar
    65   35   61 1
@<TRIPOS>MOLECULE
CHEMBL373364
   55    58     0     0     0
SMALL
USER_CHARGES

@<TRIPOS>ATOM
      1 C1         -0.0159    1.3777    0.0209 C.ar      1 <0>        -0.1271
      2 C2          1.1715    2.0862    0.0154 C.ar      1 <0>        -0.0887
      3 C3          2.3782    1.4132    0.0011 C.ar      1 <0>        -0.1525
      4 C4          2.3981    0.0286   -0.0076 C.ar      1 <0>         0.1043
      5 C5          1.2086   -0.6798   -0.0020 C.ar      1 <0>        -0.1274
      6 C6          0.0028   -0.0044    0.0122 C.ar      1 <0>        -0.0678
      7 C7          1.2286   -2.1866   -0.0115 C.3       1 <0>         0.1042
      8 O1         -0.1122   -2.6808   -0.0034 O.3       1 <0>        -0.3011
      9 C8         -0.2724   -4.0304   -0.0104 C.ar      1 <0>         0.1659
     10 C9         -1.5456   -4.5756   -0.0089 C.ar      1 <0>        -0.1225
     11 C10        -1.7089   -5.9614   -0.0161 C.ar      1 <0>        -0.0470
     12 C11        -0.5876   -6.7920   -0.0248 C.ar      1 <0>        -0.1545
     13 C12         0.6819   -6.2382   -0.0263 C.ar      1 <0>         0.1655
     14 C13         0.8396   -4.8599   -0.0248 C.ar      1 <0>        -0.2766
     15 O2          1.7747   -7.0463   -0.0343 O.3       1 <0>        -0.3031
     16 C14         3.0533   -6.4082   -0.0354 C.3       1 <0>         0.1043
     17 C15         4.1372   -7.4552   -0.0446 C.ar      1 <0>        -0.1272
     18 C16         3.8028   -8.7963   -0.0563 C.ar      1 <0>        -0.0683
     19 C17         4.7967   -9.7569   -0.0653 C.ar      1 <0>        -0.1274
     20 C18         6.1263   -9.3775   -0.0626 C.ar      1 <0>        -0.0886
     21 C19         6.4630   -8.0374   -0.0509 C.ar      1 <0>        -0.1520
     22 C20         5.4681   -7.0742   -0.0472 C.ar      1 <0>         0.1045
     23 F1          5.7960   -5.7636   -0.0410 F         1 <0>        -0.1370
     24 C21        -3.0657   -6.5479   -0.0140 C.2       1 <0>         0.5462
     25 O3         -4.0412   -5.8229   -0.0060 O.2       1 <0>        -0.4541
     26 N1         -3.2212   -7.8867   -0.0209 N.am      1 <0>        -0.6514
     27 C22        -4.4899   -8.4384    0.0877 C.ar      1 <0>         0.3352
     28 C23        -4.6311   -9.8212    0.1862 C.ar      1 <0>        -0.2164
     29 C24        -5.8835  -10.3627    0.2937 C.ar      1 <0>        -0.0208
     30 C25        -6.9891   -9.4965    0.3008 C.ar      1 <0>        -0.2052
     31 C26        -6.7722   -8.1199    0.1984 C.ar      1 <0>         0.1549
     32 N2         -5.5497   -7.6418    0.1018 N.ar      1 <0>        -0.4857
     33 C27        -8.3563  -10.0310    0.4140 C.2       1 <0>         0.5268
     34 O4         -8.5359  -11.2379    0.5028 O.co2     1 <0>        -0.6875
     35 O5         -9.3128   -9.2683    0.4193 O.co2     1 <0>        -0.6837
     36 F2          3.5773   -0.6305   -0.0220 F         1 <0>        -0.1374
     37 H1         -0.9585    1.9045    0.0365 H         1 <0>         0.1341
     38 H2          1.1557    3.1661    0.0218 H         1 <0>         0.1347
     39 H3          3.3055    1.9669   -0.0035 H         1 <0>         0.1383
     40 H4         -0.9253   -0.5568    0.0165 H         1 <0>         0.1453
     41 H5          1.7398   -2.5375   -0.9080 H         1 <0>         0.0803
     42 H6          1.7546   -2.5486    0.8719 H         1 <0>         0.0802
     43 H7         -2.4107   -3.9292   -0.0018 H         1 <0>         0.1510
     44 H8         -0.7095   -7.8651   -0.0300 H         1 <0>         0.1387
     45 H9          1.8310   -4.4313   -0.0308 H         1 <0>         0.1375
     46 H10         3.1459   -5.7815   -0.9224 H         1 <0>         0.0804
     47 H11         3.1521   -5.7909    0.8575 H         1 <0>         0.0804
     48 H12         2.7646   -9.0938   -0.0581 H         1 <0>         0.1445
     49 H13         4.5345  -10.8045   -0.0741 H         1 <0>         0.1339
     50 H14         6.9021  -10.1289   -0.0693 H         1 <0>         0.1348
     51 H15         7.5016   -7.7413   -0.0488 H         1 <0>         0.1384
     52 H16        -2.4464   -8.4645   -0.1019 H         1 <0>         0.4128
     53 H17        -3.7602  -10.4598    0.1774 H         1 <0>         0.1273
     54 H18        -6.0185  -11.4314    0.3710 H         1 <0>         0.1407
     55 H19        -7.6136   -7.4429    0.2023 H         1 <0>         0.1660
@<TRIPOS>BOND
     1    1    6 ar
     2    1    2 ar
     3    1   37 1
     4    2    3 ar
     5    2   38 1
     6    3    4 ar
     7    3   39 1
     8    4    5 ar
     9    4   36 1
    10    5    6 ar
    11    5    7 1
    12    6   40 1
    13    7    8 1
    14    7   41 1
    15    7   42 1
    16    8    9 1
    17    9   14 ar
    18    9   10 ar
    19   10   11 ar
    20   10   43 1
    21   11   12 ar
    22   11   24 1
    23   12   13 ar
    24   12   44 1
    25   13   14 ar
    26   13   15 1
    27   14   45 1
    28   15   16 1
    29   16   17 1
    30   16   46 1
    31   16   47 1
    32   17   22 ar
    33   17   18 ar
    34   18   19 ar
    35   18   48 1
    36   19   20 ar
    37   19   49 1
    38   20   21 ar
    39   20   50 1
    40   21   22 ar
    41   21   51 1
    42   22   23 1
    43   24   25 2
    44   24   26 am
    45   26   27 1
    46   26   52 1
    47   27   32 ar
    48   27   28 ar
    49   28   29 ar
    50   28   53 1
    51   29   30 ar
    52   29   54 1
    53   30   31 ar
    54   30   33 1
    55   31   32 ar
    56   31   55 1
    57   33   34 2
    58   33   35 1
@<TRIPOS>MOLECULE
CHEMBL516458
   39    41     0     0     0
SMALL
USER_CHARGES

@<TRIPOS>ATOM
      1 C1          0.7262    1.5078    0.5441 C.3       1 <0>        -0.6520
      2 S1         -0.1620    0.0705   -0.1159 S.o2      1 <0>         2.4964
      3 O1         -0.0166   -1.0392    0.7597 O.2       1 <0>        -0.9333
      4 O2         -1.4458    0.4609   -0.5835 O.2       1 <0>        -0.9335
      5 C2          0.7266   -0.3832   -1.5682 C.ar      1 <0>        -0.6516
      6 C3          0.3831    0.1726   -2.7878 C.ar      1 <0>        -0.0181
      7 C4          1.0750   -0.1785   -3.9286 C.ar      1 <0>        -0.1079
      8 C5          2.1231   -1.0963   -3.8505 C.ar      1 <0>        -0.0110
      9 C6          2.4645   -1.6532   -2.6176 C.ar      1 <0>        -0.1250
     10 C7          1.7685   -1.2896   -1.4833 C.ar      1 <0>        -0.0183
     11 C8          2.8693   -1.4778   -5.0707 C.2       1 <0>        -0.1821
     12 C9          3.6959   -0.5634   -5.6872 C.2       1 <0>         0.0774
     13 C10         3.9406    0.6878   -5.0810 C.2       1 <0>        -0.2123
     14 C11         4.6422    1.7825   -5.5793 C.2       1 <0>        -0.0900
     15 C12         4.7105    2.8729   -4.7472 C.2       1 <0>        -0.1830
     16 C13         4.1093    2.8152   -3.5322 C.2       1 <0>        -0.2487
     17 S2          3.4253    1.2816   -3.4810 S.3       1 <0>         0.2284
     18 C14         2.7292   -2.8283   -5.6233 C.2       1 <0>         0.5651
     19 O3          3.3428   -3.1420   -6.6267 O.2       1 <0>        -0.4683
     20 N1          1.9209   -3.7225   -5.0205 N.am      1 <0>        -0.6179
     21 C15         1.7881   -5.0018   -5.5440 C.2       1 <0>         0.2717
     22 N2          2.3713   -5.5154   -6.6058 N.2       1 <0>        -0.5213
     23 C16         2.1383   -6.7609   -6.9766 C.2       1 <0>         0.0623
     24 C17         1.2758   -7.4791   -6.2164 C.2       1 <0>        -0.2432
     25 S3          0.8477   -6.2742   -4.9702 S.3       1 <0>         0.1101
     26 H1          1.7543    1.2264    0.7719 H         1 <0>         0.1327
     27 H2          0.7241    2.3077   -0.1963 H         1 <0>         0.1318
     28 H3          0.2341    1.8530    1.4533 H         1 <0>         0.1350
     29 H4         -0.4285    0.8826   -2.8469 H         1 <0>         0.1491
     30 H5          0.8058    0.2558   -4.8800 H         1 <0>         0.1396
     31 H6          3.2748   -2.3641   -2.5508 H         1 <0>         0.1394
     32 H7          2.0349   -1.7164   -0.5276 H         1 <0>         0.1495
     33 H8          4.1564   -0.8040   -6.6340 H         1 <0>         0.1599
     34 H9          5.1029    1.7745   -6.5561 H         1 <0>         0.1477
     35 H10         5.2362    3.7645   -5.0557 H         1 <0>         0.1343
     36 H11         4.0750    3.5820   -2.7725 H         1 <0>         0.1840
     37 H12         1.4319   -3.4725   -4.2210 H         1 <0>         0.4258
     38 H13         2.6134   -7.1884   -7.8472 H         1 <0>         0.1770
     39 H14         0.9424   -8.4999   -6.3308 H         1 <0>         0.2002
@<TRIPOS>BOND
     1    1    2 1
     2    1   26 1
     3    1   27 1
     4    1   28 1
     5    2    3 2
     6    2    4 2
     7    2    5 1
     8    5   10 ar
     9    5    6 ar
    10    6    7 ar
    11    6   29 1
    12    7    8 ar
    13    7   30 1
    14    8    9 ar
    15    8   11 1
    16    9   10 ar
    17    9   31 1
    18   10   32 1
    19   11   12 2
    20   11   18 1
    21   12   13 1
    22   12   33 1
    23   13   17 1
    24   13   14 2
    25   14   15 1
    26   14   34 1
    27   15   16 2
    28   15   35 1
    29   16   17 1
    30   16   36 1
    31   18   19 2
    32   18   20 am
    33   20   21 1
    34   20   37 1
    35   21   25 1
    36   21   22 2
    37   22   23 1
    38   23   24 2
    39   23   38 1
    40   24   25 1
    41   24   39 1
@<TRIPOS>MOLECULE
CHEMBL373339
   51    53     0     0     0
SMALL
USER_CHARGES

@<TRIPOS>ATOM
      1 C1         -1.9863    1.1762    1.6156 C.3       1 <0>        -0.1475
      2 C2         -2.4680    0.1563    0.5818 C.3       1 <0>         0.0731
      3 C3         -3.2743    0.8722   -0.5036 C.3       1 <0>        -0.1816
      4 O1         -1.3398   -0.4900   -0.0111 O.3       1 <0>        -0.3073
      5 C4         -1.5393   -1.7334   -0.5223 C.ar      1 <0>         0.1676
      6 C5         -2.8158   -2.2703   -0.5571 C.ar      1 <0>        -0.1881
      7 C6         -3.0195   -3.5466   -1.0825 C.ar      1 <0>        -0.0477
      8 C7         -1.9353   -4.2769   -1.5711 C.ar      1 <0>        -0.1595
      9 C8         -0.6625   -3.7324   -1.5325 C.ar      1 <0>         0.1654
     10 C9         -0.4652   -2.4606   -1.0139 C.ar      1 <0>        -0.2233
     11 O2          0.3941   -4.4428   -2.0080 O.3       1 <0>        -0.3078
     12 C10         1.6786   -3.8206   -1.9374 C.3       1 <0>         0.0635
     13 C11         2.7350   -4.7647   -2.5150 C.3       1 <0>        -0.0623
     14 C12         4.0896   -4.1086   -2.4404 C.2       1 <0>        -0.1224
     15 C13         4.5489   -3.3272   -3.4840 C.2       1 <0>        -0.1532
     16 C14         5.7720   -2.7514   -3.3852 C.2       1 <0>        -0.1699
     17 S1          6.3155   -3.3121   -1.7798 S.3       1 <0>         0.0335
     18 C15         4.8735   -4.2714   -1.3467 C.2       1 <0>        -0.1658
     19 C16        -4.3798   -4.1239   -1.1212 C.2       1 <0>         0.5452
     20 O3         -5.3228   -3.4865   -0.6948 O.2       1 <0>        -0.4589
     21 N1         -4.5744   -5.3569   -1.6292 N.am      1 <0>        -0.6515
     22 C17        -5.8620   -5.8569   -1.7633 C.ar      1 <0>         0.3351
     23 C18        -6.0596   -7.0849   -2.3914 C.ar      1 <0>        -0.2164
     24 C19        -7.3305   -7.5759   -2.5219 C.ar      1 <0>        -0.0208
     25 C20        -8.3971   -6.8168   -2.0133 C.ar      1 <0>        -0.2052
     26 C21        -8.1241   -5.5936   -1.3953 C.ar      1 <0>         0.1542
     27 N2         -6.8855   -5.1617   -1.2870 N.ar      1 <0>        -0.4860
     28 C22        -9.7822   -7.3023   -2.1299 C.2       1 <0>         0.5267
     29 O4        -10.0109   -8.3744   -2.6730 O.co2     1 <0>        -0.6872
     30 O5        -10.7044   -6.6337   -1.6836 O.co2     1 <0>        -0.6839
     31 H1         -2.8468    1.6692    2.0679 H         1 <0>         0.0792
     32 H2         -1.4119    0.6661    2.3889 H         1 <0>         0.0646
     33 H3         -1.3571    1.9198    1.1266 H         1 <0>         0.0663
     34 H4         -3.0972   -0.5873    1.0709 H         1 <0>         0.0798
     35 H5         -2.6451    1.6159   -0.9926 H         1 <0>         0.0664
     36 H6         -3.6175    0.1457   -1.2401 H         1 <0>         0.0662
     37 H7         -4.1348    1.3653   -0.0513 H         1 <0>         0.0755
     38 H8         -3.6521   -1.7019   -0.1776 H         1 <0>         0.1478
     39 H9         -2.0885   -5.2654   -1.9784 H         1 <0>         0.1368
     40 H10         0.5281   -2.0374   -0.9891 H         1 <0>         0.1391
     41 H11         1.6658   -2.8945   -2.5120 H         1 <0>         0.0663
     42 H12         1.9185   -3.5996   -0.8973 H         1 <0>         0.0664
     43 H13         2.7477   -5.6908   -1.9403 H         1 <0>         0.0856
     44 H14         2.4951   -4.9857   -3.5550 H         1 <0>         0.0851
     45 H15         3.9425   -3.1780   -4.3651 H         1 <0>         0.1361
     46 H16         6.2848   -2.1180   -4.0939 H         1 <0>         0.1865
     47 H17         4.6772   -4.8359   -0.4471 H         1 <0>         0.1871
     48 H18        -3.8144   -5.8949   -1.9011 H         1 <0>         0.4133
     49 H19        -5.2177   -7.6440   -2.7722 H         1 <0>         0.1275
     50 H20        -7.5091   -8.5251   -3.0053 H         1 <0>         0.1408
     51 H21        -8.9352   -4.9999   -1.0002 H         1 <0>         0.1657
@<TRIPOS>BOND
     1    1    2 1
     2    1   31 1
     3    1   32 1
     4    1   33 1
     5    2    3 1
     6    2    4 1
     7    2   34 1
     8    3   35 1
     9    3   36 1
    10    3   37 1
    11    4    5 1
    12    5   10 ar
    13    5    6 ar
    14    6    7 ar
    15    6   38 1
    16    7    8 ar
    17    7   19 1
    18    8    9 ar
    19    8   39 1
    20    9   10 ar
    21    9   11 1
    22   10   40 1
    23   11   12 1
    24   12   13 1
    25   12   41 1
    26   12   42 1
    27   13   14 1
    28   13   43 1
    29   13   44 1
    30   14   18 2
    31   14   15 1
    32   15   16 2
    33   15   45 1
    34   16   17 1
    35   16   46 1
    36   17   18 1
    37   18   47 1
    38   19   20 2
    39   19   21 am
    40   21   22 1
    41   21   48 1
    42   22   27 ar
    43   22   23 ar
    44   23   24 ar
    45   23   49 1
    46   24   25 ar
    47   24   50 1
    48   25   26 ar
    49   25   28 1
    50   26   27 ar
    51   26   51 1
    52   28   29 2
    53   28   30 1
@<TRIPOS>MOLECULE
CHEMBL210838
   51    52     0     0     0
SMALL
USER_CHARGES

@<TRIPOS>ATOM
      1 C1          1.7330   -2.4476    0.8133 C.3       1 <0>        -0.1756
      2 C2          1.4526   -0.9762    1.1250 C.3       1 <0>         0.0805
      3 H1          1.9139   -0.7121    2.0767 H         1 <0>         0.0937
      4 C3          2.0359   -0.0996    0.0150 C.3       1 <0>         0.0667
      5 O1          1.5184   -0.5231   -1.2479 O.3       1 <0>        -0.3805
      6 C4          2.0029    0.2348   -2.3583 C.3       1 <0>         0.0302
      7 O2          0.0413   -0.7669    1.2054 O.3       1 <0>        -0.2974
      8 C5         -0.5598   -1.0617    2.3881 C.ar      1 <0>         0.1674
      9 C6          0.2046   -1.4626    3.4715 C.ar      1 <0>        -0.1911
     10 C7         -0.4135   -1.7646    4.6853 C.ar      1 <0>        -0.0467
     11 C8         -1.8003   -1.6611    4.8022 C.ar      1 <0>        -0.1616
     12 C9         -2.5569   -1.2595    3.7140 C.ar      1 <0>         0.1676
     13 C10        -1.9375   -0.9551    2.5102 C.ar      1 <0>        -0.2250
     14 O3         -3.9075   -1.1585    3.8268 O.3       1 <0>        -0.3034
     15 C11        -4.6336   -0.8178    2.6440 C.3       1 <0>         0.0734
     16 C12        -4.8737   -2.0791    1.8119 C.3       1 <0>        -0.1810
     17 C13        -5.9780   -0.1988    3.0315 C.3       1 <0>        -0.1486
     18 C14         0.3981   -2.1933    5.8439 C.2       1 <0>         0.5464
     19 O4          1.6057   -2.2832    5.7401 O.2       1 <0>        -0.4605
     20 N1         -0.2010   -2.4845    7.0156 N.am      1 <0>        -0.6519
     21 C15         0.5669   -2.7843    8.1319 C.ar      1 <0>         0.3359
     22 C16        -0.0602   -3.1962    9.3061 C.ar      1 <0>        -0.2165
     23 C17         0.6996   -3.4917   10.4055 C.ar      1 <0>        -0.0206
     24 C18         2.0952   -3.3674   10.3080 C.ar      1 <0>        -0.2055
     25 C19         2.6553   -2.9487    9.0982 C.ar      1 <0>         0.1546
     26 N2          1.8869   -2.6797    8.0640 N.ar      1 <0>        -0.4869
     27 C20         2.9551   -3.6732   11.4633 C.2       1 <0>         0.5268
     28 O5          2.4551   -4.0387   12.5183 O.co2     1 <0>        -0.6872
     29 O6          4.1697   -3.5619   11.3683 O.co2     1 <0>        -0.6841
     30 H2          1.2718   -2.7117   -0.1383 H         1 <0>         0.0761
     31 H3          2.8095   -2.6073    0.7520 H         1 <0>         0.0732
     32 H4          1.3175   -3.0721    1.6041 H         1 <0>         0.0645
     33 H5          1.7600    0.9402    0.1904 H         1 <0>         0.0603
     34 H6          3.1220   -0.1918    0.0120 H         1 <0>         0.0729
     35 H7          1.5636   -0.1486   -3.2792 H         1 <0>         0.0864
     36 H8          1.7264    1.2815   -2.2321 H         1 <0>         0.0413
     37 H9          3.0883    0.1495   -2.4105 H         1 <0>         0.0414
     38 H10         1.2776   -1.5417    3.3766 H         1 <0>         0.1466
     39 H11        -2.2829   -1.8943    5.7398 H         1 <0>         0.1360
     40 H12        -2.5301   -0.6383    1.6648 H         1 <0>         0.1419
     41 H13        -4.0585   -0.1004    2.0587 H         1 <0>         0.0768
     42 H14        -5.4275   -1.8192    0.9098 H         1 <0>         0.0724
     43 H15        -3.9159   -2.5201    1.5359 H         1 <0>         0.0643
     44 H16        -5.4488   -2.7965    2.3973 H         1 <0>         0.0683
     45 H17        -5.8070    0.6998    3.6243 H         1 <0>         0.0660
     46 H18        -6.5319    0.0611    2.1294 H         1 <0>         0.0772
     47 H19        -6.5531   -0.9162    3.6169 H         1 <0>         0.0680
     48 H20        -1.1690   -2.4846    7.0785 H         1 <0>         0.4134
     49 H21        -1.1360   -3.2813    9.3483 H         1 <0>         0.1275
     50 H22         0.2366   -3.8127   11.3269 H         1 <0>         0.1407
     51 H23         3.7270   -2.8487    9.0100 H         1 <0>         0.1656
@<TRIPOS>BOND
     1    1    2 1
     2    1   30 1
     3    1   31 1
     4    1   32 1
     5    2    3 1
     6    2    4 1
     7    2    7 1
     8    4    5 1
     9    4   33 1
    10    4   34 1
    11    5    6 1
    12    6   35 1
    13    6   36 1
    14    6   37 1
    15    7    8 1
    16    8   13 ar
    17    8    9 ar
    18    9   10 ar
    19    9   38 1
    20   10   11 ar
    21   10   18 1
    22   11   12 ar
    23   11   39 1
    24   12   13 ar
    25   12   14 1
    26   13   40 1
    27   14   15 1
    28   15   16 1
    29   15   17 1
    30   15   41 1
    31   16   42 1
    32   16   43 1
    33   16   44 1
    34   17   45 1
    35   17   46 1
    36   17   47 1
    37   18   19 2
    38   18   20 am
    39   20   21 1
    40   20   48 1
    41   21   26 ar
    42   21   22 ar
    43   22   23 ar
    44   22   49 1
    45   23   24 ar
    46   23   50 1
    47   24   25 ar
    48   24   27 1
    49   25   26 ar
    50   25   51 1
    51   27   28 2
    52   27   29 1
@<TRIPOS>MOLECULE
CHEMBL195431
   57    59     0     0     0
SMALL
USER_CHARGES

@<TRIPOS>ATOM
      1 C1         -1.9863    1.1762    1.6156 C.3       1 <0>        -0.1474
      2 C2         -2.4680    0.1563    0.5818 C.3       1 <0>         0.0731
      3 C3         -3.2743    0.8722   -0.5036 C.3       1 <0>        -0.1816
      4 O1         -1.3398   -0.4900   -0.0111 O.3       1 <0>        -0.3075
      5 C4         -1.5393   -1.7334   -0.5223 C.ar      1 <0>         0.1674
      6 C5         -2.8158   -2.2703   -0.5571 C.ar      1 <0>        -0.1887
      7 C6         -3.0195   -3.5466   -1.0825 C.ar      1 <0>        -0.0478
      8 C7         -1.9353   -4.2769   -1.5711 C.ar      1 <0>        -0.1602
      9 C8         -0.6625   -3.7324   -1.5325 C.ar      1 <0>         0.1654
     10 C9         -0.4652   -2.4606   -1.0139 C.ar      1 <0>        -0.2237
     11 O2          0.3941   -4.4428   -2.0080 O.3       1 <0>        -0.3082
     12 C10         1.6786   -3.8206   -1.9374 C.3       1 <0>         0.0563
     13 C11         2.7350   -4.7647   -2.5150 C.3       1 <0>        -0.1118
     14 C12         4.1103   -4.0986   -2.4393 C.3       1 <0>        -0.0896
     15 C13         4.1681   -2.8948   -3.4022 C.3       1 <0>        -0.1257
     16 C14         5.6110   -2.9269   -3.9644 C.3       1 <0>        -0.1261
     17 C15         5.8804   -4.4434   -4.1280 C.3       1 <0>        -0.1261
     18 C16         5.1990   -5.0833   -2.9007 C.3       1 <0>        -0.1204
     19 C17        -4.3798   -4.1239   -1.1212 C.2       1 <0>         0.5452
     20 O3         -5.3228   -3.4865   -0.6948 O.2       1 <0>        -0.4590
     21 N1         -4.5744   -5.3569   -1.6292 N.am      1 <0>        -0.6516
     22 C18        -5.8620   -5.8569   -1.7633 C.ar      1 <0>         0.3352
     23 C19        -6.0596   -7.0849   -2.3914 C.ar      1 <0>        -0.2165
     24 C20        -7.3305   -7.5759   -2.5219 C.ar      1 <0>        -0.0207
     25 C21        -8.3971   -6.8168   -2.0133 C.ar      1 <0>        -0.2053
     26 C22        -8.1241   -5.5936   -1.3953 C.ar      1 <0>         0.1542
     27 N2         -6.8855   -5.1617   -1.2870 N.ar      1 <0>        -0.4860
     28 C23        -9.7822   -7.3023   -2.1299 C.2       1 <0>         0.5268
     29 O4        -10.0109   -8.3744   -2.6730 O.co2     1 <0>        -0.6872
     30 O5        -10.7044   -6.6337   -1.6836 O.co2     1 <0>        -0.6839
     31 H1         -2.8468    1.6692    2.0679 H         1 <0>         0.0791
     32 H2         -1.4119    0.6661    2.3889 H         1 <0>         0.0645
     33 H3         -1.3571    1.9198    1.1266 H         1 <0>         0.0662
     34 H4         -3.0972   -0.5873    1.0709 H         1 <0>         0.0797
     35 H5         -4.1348    1.3653   -0.0513 H         1 <0>         0.0754
     36 H6         -2.6451    1.6159   -0.9926 H         1 <0>         0.0664
     37 H7         -3.6175    0.1457   -1.2401 H         1 <0>         0.0662
     38 H8         -3.6521   -1.7019   -0.1776 H         1 <0>         0.1477
     39 H9         -2.0885   -5.2654   -1.9784 H         1 <0>         0.1364
     40 H10         0.5281   -2.0374   -0.9891 H         1 <0>         0.1390
     41 H11         1.6658   -2.8945   -2.5120 H         1 <0>         0.0656
     42 H12         1.9185   -3.5996   -0.8973 H         1 <0>         0.0639
     43 H13         2.7477   -5.6908   -1.9403 H         1 <0>         0.0753
     44 H14         2.4951   -4.9857   -3.5550 H         1 <0>         0.0763
     45 H15         4.3108   -3.7716   -1.4190 H         1 <0>         0.0747
     46 H16         3.4425   -3.0146   -4.2067 H         1 <0>         0.0694
     47 H17         3.9899   -1.9651   -2.8618 H         1 <0>         0.0653
     48 H18         5.6617   -2.4195   -4.9277 H         1 <0>         0.0656
     49 H19         6.3115   -2.4844   -3.2561 H         1 <0>         0.0660
     50 H20         5.4313   -4.8134   -5.0497 H         1 <0>         0.0656
     51 H21         6.9517   -4.6440   -4.1173 H         1 <0>         0.0639
     52 H22         5.9283   -5.2334   -2.1047 H         1 <0>         0.0647
     53 H23         4.7475   -6.0357   -3.1786 H         1 <0>         0.0674
     54 H24        -3.8144   -5.8949   -1.9011 H         1 <0>         0.4133
     55 H25        -5.2177   -7.6440   -2.7722 H         1 <0>         0.1275
     56 H26        -7.5091   -8.5251   -3.0053 H         1 <0>         0.1408
     57 H27        -8.9352   -4.9999   -1.0002 H         1 <0>         0.1657
@<TRIPOS>BOND
     1    1    2 1
     2    1   31 1
     3    1   32 1
     4    1   33 1
     5    2    3 1
     6    2    4 1
     7    2   34 1
     8    3   35 1
     9    3   36 1
    10    3   37 1
    11    4    5 1
    12    5   10 ar
    13    5    6 ar
    14    6    7 ar
    15    6   38 1
    16    7    8 ar
    17    7   19 1
    18    8    9 ar
    19    8   39 1
    20    9   10 ar
    21    9   11 1
    22   10   40 1
    23   11   12 1
    24   12   13 1
    25   12   41 1
    26   12   42 1
    27   13   14 1
    28   13   43 1
    29   13   44 1
    30   14   18 1
    31   14   15 1
    32   14   45 1
    33   15   16 1
    34   15   46 1
    35   15   47 1
    36   16   17 1
    37   16   48 1
    38   16   49 1
    39   17   18 1
    40   17   50 1
    41   17   51 1
    42   18   52 1
    43   18   53 1
    44   19   20 2
    45   19   21 am
    46   21   22 1
    47   21   54 1
    48   22   27 ar
    49   22   23 ar
    50   23   24 ar
    51   23   55 1
    52   24   25 ar
    53   24   56 1
    54   25   26 ar
    55   25   28 1
    56   26   27 ar
    57   26   57 1
    58   28   29 2
    59   28   30 1
@<TRIPOS>MOLECULE
CHEMBL549417
   54    57     0     0     0
SMALL
USER_CHARGES

@<TRIPOS>ATOM
      1 C1         -0.7789   -6.1731   -7.5536 C.3       1 <0>        -0.6507
      2 S1         -0.6231   -6.0015   -5.7544 S.o2      1 <0>         2.5024
      3 O1         -1.8722   -5.6294   -5.1883 O.2       1 <0>        -0.9362
      4 O2          0.1183   -7.0902   -5.2213 O.2       1 <0>        -0.9368
      5 C2          0.4128   -4.5953   -5.5217 C.ar      1 <0>        -0.6916
      6 C3          1.7848   -4.7527   -5.4524 C.ar      1 <0>         0.0173
      7 C4          2.5992   -3.6518   -5.2704 C.ar      1 <0>        -0.2189
      8 C5          2.0393   -2.3873   -5.1573 C.ar      1 <0>         0.1730
      9 C6          0.6622   -2.2321   -5.2273 C.ar      1 <0>        -0.1610
     10 C7         -0.1473   -3.3357   -5.4146 C.ar      1 <0>         0.0153
     11 O3          2.8382   -1.3028   -4.9779 O.3       1 <0>        -0.2471
     12 C8          4.1710   -1.5122   -4.8153 C.ar      1 <0>         0.1190
     13 C9          4.9597   -1.8307   -5.9089 C.ar      1 <0>        -0.1427
     14 C10         6.3280   -2.0449   -5.7408 C.ar      1 <0>        -0.0754
     15 C11         6.8962   -1.9373   -4.4707 C.ar      1 <0>        -0.0821
     16 C12         6.1006   -1.6185   -3.3830 C.ar      1 <0>         0.1508
     17 C13         4.7411   -1.4010   -3.5553 C.ar      1 <0>        -0.1865
     18 O4          6.6530   -1.5139   -2.1457 O.3       1 <0>        -0.2936
     19 C14         5.7572   -1.3171   -1.0498 C.3       1 <0>         0.0790
     20 C15         5.6257    0.1808   -0.7580 C.3       1 <0>        -0.1798
     21 C16         4.7272    0.3775    0.4658 C.3       1 <0>         0.0635
     22 O5          5.2792   -0.3288    1.5787 O.3       1 <0>        -0.3773
     23 C17         5.3820   -1.7403    1.3812 C.3       1 <0>         0.0637
     24 C18         6.3068   -2.0220    0.1942 C.3       1 <0>        -0.1555
     25 C19         7.1734   -2.3855   -6.9047 C.2       1 <0>         0.5583
     26 O6          8.3654   -2.5718   -6.7563 O.2       1 <0>        -0.4512
     27 N1          6.6225   -2.4894   -8.1303 N.am      1 <0>        -0.6183
     28 C20         7.4168   -2.8093   -9.2239 C.2       1 <0>         0.2678
     29 N2          8.7102   -3.0486   -9.2528 N.2       1 <0>        -0.5194
     30 C21         9.3247   -3.3420  -10.3838 C.2       1 <0>         0.0627
     31 C22         8.5640   -3.3843  -11.5052 C.2       1 <0>        -0.2396
     32 S2          6.9573   -2.9923  -10.8325 S.3       1 <0>         0.1134
     33 H1         -1.2267   -5.2696   -7.9673 H         1 <0>         0.1321
     34 H2          0.2082   -6.3226   -7.9911 H         1 <0>         0.1313
     35 H3         -1.4118   -7.0303   -7.7833 H         1 <0>         0.1341
     36 H4          2.2200   -5.7372   -5.5401 H         1 <0>         0.1478
     37 H5          3.6707   -3.7754   -5.2160 H         1 <0>         0.1399
     38 H6          0.2239   -1.2490   -5.1392 H         1 <0>         0.1461
     39 H7         -1.2189   -3.2149   -5.4736 H         1 <0>         0.1533
     40 H8          4.5159   -1.9134   -6.8900 H         1 <0>         0.1379
     41 H9          7.9550   -2.1027   -4.3362 H         1 <0>         0.1570
     42 H10         4.1242   -1.1485   -2.7056 H         1 <0>         0.1484
     43 H11         4.7793   -1.7285   -1.2998 H         1 <0>         0.0800
     44 H12         6.6113    0.6008   -0.5575 H         1 <0>         0.0894
     45 H13         5.1834    0.6821   -1.6189 H         1 <0>         0.0809
     46 H14         4.6645    1.4393    0.7039 H         1 <0>         0.1040
     47 H15         3.7300   -0.0063    0.2501 H         1 <0>         0.0540
     48 H16         5.7911   -2.2041    2.2788 H         1 <0>         0.1067
     49 H17         4.3934   -2.1518    1.1775 H         1 <0>         0.0551
     50 H18         6.3517   -3.0961    0.0142 H         1 <0>         0.0862
     51 H19         7.3062   -1.6466    0.4139 H         1 <0>         0.0887
     52 H20         5.6713   -2.3407   -8.2487 H         1 <0>         0.4250
     53 H21        10.3861   -3.5391  -10.4144 H         1 <0>         0.1785
     54 H22         8.8503   -3.6001  -12.5240 H         1 <0>         0.2015
@<TRIPOS>BOND
     1    1    2 1
     2    1   33 1
     3    1   34 1
     4    1   35 1
     5    2    3 2
     6    2    4 2
     7    2    5 1
     8    5   10 ar
     9    5    6 ar
    10    6    7 ar
    11    6   36 1
    12    7    8 ar
    13    7   37 1
    14    8    9 ar
    15    8   11 1
    16    9   10 ar
    17    9   38 1
    18   10   39 1
    19   11   12 1
    20   12   17 ar
    21   12   13 ar
    22   13   14 ar
    23   13   40 1
    24   14   15 ar
    25   14   25 1
    26   15   16 ar
    27   15   41 1
    28   16   17 ar
    29   16   18 1
    30   17   42 1
    31   18   19 1
    32   19   24 1
    33   19   20 1
    34   19   43 1
    35   20   21 1
    36   20   44 1
    37   20   45 1
    38   21   22 1
    39   21   46 1
    40   21   47 1
    41   22   23 1
    42   23   24 1
    43   23   48 1
    44   23   49 1
    45   24   50 1
    46   24   51 1
    47   25   26 2
    48   25   27 am
    49   27   28 1
    50   27   52 1
    51   28   32 1
    52   28   29 2
    53   29   30 1
    54   30   31 2
    55   30   53 1
    56   31   32 1
    57   31   54 1
@<TRIPOS>MOLECULE
CHEMBL489333
   38    40     0     0     0
SMALL
USER_CHARGES

@<TRIPOS>ATOM
      1 C1         -0.1118    1.4851   -0.0028 C.3       1 <0>        -0.0803
      2 C2         -0.0455   -0.0204   -0.0084 C.2       1 <0>         0.0864
      3 C3          0.0054   -0.7225   -1.1670 C.2       1 <0>        -0.2820
      4 S1          0.0687   -2.3934   -0.5411 S.3       1 <0>         0.2156
      5 C4          0.0244   -2.0285    1.1013 C.2       1 <0>         0.2465
      6 N1         -0.0289   -0.7140    1.1148 N.2       1 <0>        -0.5517
      7 N2          0.0442   -2.9027    2.1805 N.am      1 <0>        -0.6066
      8 C5          0.1068   -4.2324    1.9696 C.2       1 <0>         0.5812
      9 O1          0.1459   -4.6668    0.8344 O.2       1 <0>        -0.5147
     10 C6          0.1278   -5.1600    3.1149 C.ar      1 <0>        -0.2399
     11 C7          0.2085   -4.6642    4.4189 C.ar      1 <0>         0.0270
     12 C8          0.2278   -5.5415    5.4893 C.ar      1 <0>        -0.2110
     13 C9          0.1676   -6.9150    5.2700 C.ar      1 <0>         0.0185
     14 C10         0.0884   -7.4129    3.9864 C.ar      1 <0>        -0.2140
     15 C11         0.0612   -6.5453    2.9017 C.ar      1 <0>         0.3165
     16 N3         -0.0255   -7.0487    1.6076 N.pl3     1 <0>        -0.8430
     17 S2          0.3295   -4.9182    7.1342 S.3       1 <0>        -0.0012
     18 C12        -1.3487   -4.8435    7.6662 C.ar      1 <0>        -0.1016
     19 C13        -1.6492   -4.4850    8.9749 C.ar      1 <0>        -0.0998
     20 C14        -2.9654   -4.4276    9.3883 C.ar      1 <0>        -0.1023
     21 C15        -3.9841   -4.7268    8.5019 C.ar      1 <0>        -0.1239
     22 C16        -3.6888   -5.0839    7.1988 C.ar      1 <0>        -0.1032
     23 C17        -2.3752   -5.1375    6.7766 C.ar      1 <0>        -0.1248
     24 H1          0.8988    1.8933    0.0117 H         1 <0>         0.0756
     25 H2         -0.6299    1.8294   -0.8979 H         1 <0>         0.0766
     26 H3         -0.6523    1.8217    0.8819 H         1 <0>         0.0740
     27 H4          0.0067   -0.3686   -2.1874 H         1 <0>         0.1956
     28 H5          0.0131   -2.5562    3.0860 H         1 <0>         0.4248
     29 H6          0.2560   -3.5991    4.5911 H         1 <0>         0.1354
     30 H7          0.1835   -7.5942    6.1095 H         1 <0>         0.1400
     31 H8          0.0427   -8.4797    3.8243 H         1 <0>         0.1400
     32 H9          0.0400   -6.4485    0.8483 H         1 <0>         0.4200
     33 H10        -0.1514   -7.9998    1.4645 H         1 <0>         0.4015
     34 H11        -0.8542   -4.2520    9.6678 H         1 <0>         0.1278
     35 H12        -3.1997   -4.1491   10.4051 H         1 <0>         0.1279
     36 H13        -5.0126   -4.6817    8.8282 H         1 <0>         0.1243
     37 H14        -4.4867   -5.3172    6.5094 H         1 <0>         0.1234
     38 H15        -2.1455   -5.4121    5.7577 H         1 <0>         0.1216
@<TRIPOS>BOND
     1    1    2 1
     2    1   24 1
     3    1   25 1
     4    1   26 1
     5    2    6 1
     6    2    3 2
     7    3    4 1
     8    3   27 1
     9    4    5 1
    10    5    6 2
    11    5    7 1
    12    7    8 am
    13    7   28 1
    14    8    9 2
    15    8   10 1
    16   10   15 ar
    17   10   11 ar
    18   11   12 ar
    19   11   29 1
    20   12   13 ar
    21   12   17 1
    22   13   14 ar
    23   13   30 1
    24   14   15 ar
    25   14   31 1
    26   15   16 1
    27   16   32 1
    28   16   33 1
    29   17   18 1
    30   18   23 ar
    31   18   19 ar
    32   19   20 ar
    33   19   34 1
    34   20   21 ar
    35   20   35 1
    36   21   22 ar
    37   21   36 1
    38   22   23 ar
    39   22   37 1
    40   23   38 1
@<TRIPOS>MOLECULE
CHEMBL523602
   37    39     0     0     0
SMALL
USER_CHARGES

@<TRIPOS>ATOM
      1 C1         -0.1490    1.4982    0.0114 C.3       1 <0>        -0.0800
      2 C2         -0.0895   -0.0076    0.0029 C.2       1 <0>         0.0864
      3 C3         -0.0524   -0.7082   -1.1572 C.2       1 <0>        -0.2836
      4 S1          0.0093   -2.3803   -0.5344 S.3       1 <0>         0.2156
      5 C4         -0.0182   -2.0178    1.1089 C.2       1 <0>         0.2482
      6 N1         -0.0655   -0.7031    1.1248 N.2       1 <0>        -0.5533
      7 N2          0.0082   -2.8937    2.1865 N.am      1 <0>        -0.6071
      8 C5          0.0633   -4.2233    1.9731 C.2       1 <0>         0.5819
      9 O1          0.0900   -4.6562    0.8369 O.2       1 <0>        -0.5160
     10 C6          0.0913   -5.1528    3.1167 C.ar      1 <0>        -0.2398
     11 C7          0.1860   -4.6594    4.4206 C.ar      1 <0>         0.0346
     12 C8          0.2117   -5.5383    5.4894 C.ar      1 <0>        -0.1936
     13 C9          0.1436   -6.9111    5.2687 C.ar      1 <0>         0.0268
     14 C10         0.0500   -7.4068    3.9853 C.ar      1 <0>        -0.2150
     15 C11         0.0172   -6.5375    2.9020 C.ar      1 <0>         0.3174
     16 N3         -0.0831   -7.0385    1.6081 N.pl3     1 <0>        -0.8450
     17 S2          0.3317   -4.9179    7.1342 S.3       1 <0>         0.0373
     18 C12        -1.3410   -4.8373    7.6824 C.ar      1 <0>         0.1008
     19 C13        -1.6192   -4.4761    8.9974 C.ar      1 <0>        -0.1511
     20 C14        -2.9364   -4.4164    9.4140 C.ar      1 <0>        -0.0590
     21 C15        -3.9358   -4.7211    8.4985 C.ar      1 <0>        -0.1788
     22 C16        -3.5881   -5.0719    7.2095 C.ar      1 <0>         0.1119
     23 N4         -2.3228   -5.1158    6.8378 N.ar      1 <0>        -0.4802
     24 H1          0.8635    1.9018    0.0172 H         1 <0>         0.0753
     25 H2         -0.6738    1.8461   -0.8783 H         1 <0>         0.0764
     26 H3         -0.6798    1.8357    0.9016 H         1 <0>         0.0737
     27 H4         -0.0589   -0.3527   -2.1770 H         1 <0>         0.1952
     28 H5         -0.0131   -2.5485    3.0928 H         1 <0>         0.4245
     29 H6          0.2393   -3.5947    4.5940 H         1 <0>         0.1314
     30 H7          0.1645   -7.5916    6.1071 H         1 <0>         0.1354
     31 H8         -0.0024   -8.4731    3.8221 H         1 <0>         0.1377
     32 H9         -0.0219   -6.4375    0.8492 H         1 <0>         0.4192
     33 H10        -0.2141   -7.9889    1.4648 H         1 <0>         0.4005
     34 H11        -0.8173   -4.2458    9.6832 H         1 <0>         0.1394
     35 H12        -3.1827   -4.1395   10.4284 H         1 <0>         0.1397
     36 H13        -4.9744   -4.6843    8.7925 H         1 <0>         0.1367
     37 H14        -4.3621   -5.3095    6.4947 H         1 <0>         0.1565
@<TRIPOS>BOND
     1    1    2 1
     2    1   24 1
     3    1   25 1
     4    1   26 1
     5    2    6 1
     6    2    3 2
     7    3    4 1
     8    3   27 1
     9    4    5 1
    10    5    6 2
    11    5    7 1
    12    7    8 am
    13    7   28 1
    14    8    9 2
    15    8   10 1
    16   10   15 ar
    17   10   11 ar
    18   11   12 ar
    19   11   29 1
    20   12   13 ar
    21   12   17 1
    22   13   14 ar
    23   13   30 1
    24   14   15 ar
    25   14   31 1
    26   15   16 1
    27   16   32 1
    28   16   33 1
    29   17   18 1
    30   18   23 ar
    31   18   19 ar
    32   19   20 ar
    33   19   34 1
    34   20   21 ar
    35   20   35 1
    36   21   22 ar
    37   21   36 1
    38   22   23 ar
    39   22   37 1
@<TRIPOS>MOLECULE
CHEMBL451084
   34    35     0     0     0
SMALL
USER_CHARGES

@<TRIPOS>ATOM
      1 C1         -0.5553    1.6314    0.1046 C.3       1 <0>        -0.1390
      2 C2         -0.3812    0.1117    0.0683 C.3       1 <0>        -0.1087
      3 S1         -2.0114   -0.6839    0.0723 S.3       1 <0>        -0.1222
      4 C3         -1.6450   -2.4068    0.0289 C.ar      1 <0>        -0.1509
      5 C4         -0.3202   -2.8344    0.0074 C.ar      1 <0>        -0.0426
      6 C5         -0.0229   -4.1806   -0.0271 C.ar      1 <0>        -0.1886
      7 C6         -1.0454   -5.1210   -0.0406 C.ar      1 <0>         0.2893
      8 C7         -2.3828   -4.6975   -0.0186 C.ar      1 <0>        -0.2160
      9 C8         -2.6749   -3.3314    0.0220 C.ar      1 <0>        -0.0093
     10 C9         -3.4739   -5.6883   -0.0331 C.2       1 <0>         0.5808
     11 O1         -3.2187   -6.8750    0.0405 O.2       1 <0>        -0.5142
     12 N1         -4.7545   -5.2790   -0.1280 N.am      1 <0>        -0.6065
     13 C10        -5.7828   -6.2127   -0.1417 C.2       1 <0>         0.2479
     14 N2         -7.0781   -6.0011   -0.2330 N.2       1 <0>        -0.5530
     15 C11        -7.9351   -7.0053   -0.2323 C.2       1 <0>         0.0864
     16 C12        -7.4196   -8.2553   -0.1338 C.2       1 <0>        -0.2835
     17 S2         -5.6738   -7.8899   -0.0529 S.3       1 <0>         0.2152
     18 C13        -9.4204   -6.7725   -0.3360 C.3       1 <0>        -0.0800
     19 N3         -0.7439   -6.4791   -0.0763 N.pl3     1 <0>        -0.8503
     20 H1          0.4243    2.1094    0.1022 H         1 <0>         0.0760
     21 H2         -1.1189    1.9535   -0.7709 H         1 <0>         0.0672
     22 H3         -1.0951    1.9137    1.0084 H         1 <0>         0.0671
     23 H4          0.1587   -0.1707   -0.8355 H         1 <0>         0.0873
     24 H5          0.1825   -0.2104    0.9439 H         1 <0>         0.0872
     25 H6          0.4789   -2.1079    0.0174 H         1 <0>         0.1305
     26 H7          1.0072   -4.5045   -0.0440 H         1 <0>         0.1364
     27 H8         -3.7019   -2.9978    0.0432 H         1 <0>         0.1310
     28 H9         -4.9581   -4.3325   -0.1867 H         1 <0>         0.4250
     29 H10        -7.9253   -9.2094   -0.1141 H         1 <0>         0.1952
     30 H11        -9.7156   -6.7712   -1.3853 H         1 <0>         0.0752
     31 H12        -9.9503   -7.5670    0.1895 H         1 <0>         0.0764
     32 H13        -9.6697   -5.8110    0.1128 H         1 <0>         0.0739
     33 H14         0.1766   -6.7692   -0.1734 H         1 <0>         0.3987
     34 H15        -1.4543   -7.1356   -0.0041 H         1 <0>         0.4182
@<TRIPOS>BOND
     1    1    2 1
     2    1   20 1
     3    1   21 1
     4    1   22 1
     5    2    3 1
     6    2   23 1
     7    2   24 1
     8    3    4 1
     9    4    9 ar
    10    4    5 ar
    11    5    6 ar
    12    5   25 1
    13    6    7 ar
    14    6   26 1
    15    7    8 ar
    16    7   19 1
    17    8    9 ar
    18    8   10 1
    19    9   27 1
    20   10   11 2
    21   10   12 am
    22   12   13 1
    23   12   28 1
    24   13   17 1
    25   13   14 2
    26   14   15 1
    27   15   16 2
    28   15   18 1
    29   16   17 1
    30   16   29 1
    31   18   30 1
    32   18   31 1
    33   18   32 1
    34   19   33 1
    35   19   34 1
@<TRIPOS>MOLECULE
CHEMBL489334
   35    37     0     0     0
SMALL
USER_CHARGES

@<TRIPOS>ATOM
      1 C1         -0.1545    1.5002    0.0135 C.3       1 <0>        -0.0800
      2 C2         -0.0960   -0.0056    0.0046 C.2       1 <0>         0.0863
      3 C3         -0.0611   -0.7059   -1.1557 C.2       1 <0>        -0.2835
      4 S1         -0.0005   -2.3783   -0.5333 S.3       1 <0>         0.2159
      5 C4         -0.0255   -2.0161    1.1100 C.2       1 <0>         0.2482
      6 N1         -0.0710   -0.7013    1.1264 N.2       1 <0>        -0.5531
      7 N2          0.0008   -2.8923    2.1875 N.am      1 <0>        -0.6068
      8 C5          0.0538   -4.2219    1.9736 C.2       1 <0>         0.5825
      9 O1          0.0785   -4.6546    0.8374 O.2       1 <0>        -0.5157
     10 C6          0.0817   -5.1517    3.1170 C.ar      1 <0>        -0.2405
     11 C7          0.1786   -4.6588    4.4210 C.ar      1 <0>         0.0409
     12 C8          0.2043   -5.5380    5.4895 C.ar      1 <0>        -0.1977
     13 C9          0.1344   -6.9107    5.2685 C.ar      1 <0>         0.0314
     14 C10         0.0386   -7.4059    3.9851 C.ar      1 <0>        -0.2154
     15 C11         0.0053   -6.5363    2.9021 C.ar      1 <0>         0.3214
     16 N3         -0.0971   -7.0369    1.6082 N.pl3     1 <0>        -0.8431
     17 S2          0.3265   -4.9181    7.1343 S.3       1 <0>         0.0846
     18 C12        -1.3455   -4.8358    7.6841 C.2       1 <0>         0.1707
     19 N4         -1.7560   -4.4977    8.9372 N.pl3     1 <0>        -0.5557
     20 H1         -1.1874   -4.2595    9.6861 H         1 <0>         0.4231
     21 C13        -3.1311   -4.5573    8.9398 C.2       1 <0>        -0.0425
     22 C14        -3.5100   -4.9253    7.7038 C.2       1 <0>        -0.0214
     23 N5         -2.4073   -5.0847    6.9535 N.2       1 <0>        -0.4791
     24 H2          0.8583    1.9031    0.0179 H         1 <0>         0.0752
     25 H3         -0.6803    1.8487   -0.8754 H         1 <0>         0.0763
     26 H4         -0.6838    1.8380    0.9045 H         1 <0>         0.0737
     27 H5         -0.0684   -0.3503   -2.1754 H         1 <0>         0.1952
     28 H6         -0.0190   -2.5472    3.0938 H         1 <0>         0.4247
     29 H7          0.2337   -3.5942    4.5945 H         1 <0>         0.1336
     30 H8          0.1557   -7.5914    6.1067 H         1 <0>         0.1376
     31 H9         -0.0152   -8.4721    3.8217 H         1 <0>         0.1392
     32 H10        -0.0360   -6.4358    0.8493 H         1 <0>         0.4196
     33 H11        -0.2297   -7.9870    1.4649 H         1 <0>         0.4011
     34 H12        -3.7819   -4.3483    9.7760 H         1 <0>         0.1813
     35 H13        -4.5275   -5.0653    7.3699 H         1 <0>         0.1720
@<TRIPOS>BOND
     1    1    2 1
     2    1   24 1
     3    1   25 1
     4    1   26 1
     5    2    6 1
     6    2    3 2
     7    3    4 1
     8    3   27 1
     9    4    5 1
    10    5    6 2
    11    5    7 1
    12    7    8 am
    13    7   28 1
    14    8    9 2
    15    8   10 1
    16   10   15 ar
    17   10   11 ar
    18   11   12 ar
    19   11   29 1
    20   12   13 ar
    21   12   17 1
    22   13   14 ar
    23   13   30 1
    24   14   15 ar
    25   14   31 1
    26   15   16 1
    27   16   32 1
    28   16   33 1
    29   17   18 1
    30   18   23 2
    31   18   19 1
    32   19   20 1
    33   19   21 1
    34   21   22 2
    35   21   34 1
    36   22   23 1
    37   22   35 1
@<TRIPOS>MOLECULE
CHEMBL489335
   38    40     0     0     0
SMALL
USER_CHARGES

@<TRIPOS>ATOM
      1 C1         -0.1553    1.5000    0.0135 C.3       1 <0>        -0.0799
      2 C2         -0.0966   -0.0058    0.0046 C.2       1 <0>         0.0864
      3 C3         -0.0614   -0.7061   -1.1557 C.2       1 <0>        -0.2837
      4 S1          0.0002   -2.3784   -0.5334 S.3       1 <0>         0.2158
      5 C4         -0.0248   -2.0162    1.1100 C.2       1 <0>         0.2485
      6 N1         -0.0715   -0.7015    1.1263 N.2       1 <0>        -0.5532
      7 N2          0.0025   -2.8924    2.1875 N.am      1 <0>        -0.6069
      8 C5          0.0566   -4.2220    1.9736 C.2       1 <0>         0.5825
      9 O1          0.0816   -4.6546    0.8373 O.2       1 <0>        -0.5158
     10 C6          0.0856   -5.1517    3.1170 C.ar      1 <0>        -0.2405
     11 C7          0.1823   -4.6587    4.4209 C.ar      1 <0>         0.0406
     12 C8          0.2085   -5.5378    5.4894 C.ar      1 <0>        -0.1977
     13 C9          0.1389   -6.9105    5.2686 C.ar      1 <0>         0.0312
     14 C10         0.0437   -7.4059    3.9852 C.ar      1 <0>        -0.2154
     15 C11         0.0104   -6.5363    2.9021 C.ar      1 <0>         0.3210
     16 N3         -0.0913   -7.0371    1.6082 N.pl3     1 <0>        -0.8434
     17 S2          0.3310   -4.9178    7.1342 S.3       1 <0>         0.0837
     18 C12        -1.3409   -4.8359    7.6845 C.2       1 <0>         0.1684
     19 N4         -2.4025   -5.0909    6.9558 N.2       1 <0>        -0.4808
     20 C13        -3.5053   -4.9268    7.7050 C.2       1 <0>        -0.0206
     21 C14        -3.1263   -4.5580    8.9407 C.2       1 <0>        -0.0469
     22 N5         -1.7510   -4.5031    8.9391 N.pl3     1 <0>        -0.4485
     23 C15        -0.8916   -4.1506   10.0720 C.3       1 <0>         0.0695
     24 H1          0.8574    1.9031    0.0180 H         1 <0>         0.0752
     25 H2         -0.6811    1.8484   -0.8754 H         1 <0>         0.0763
     26 H3         -0.6847    1.8377    0.9045 H         1 <0>         0.0737
     27 H4         -0.0691   -0.3504   -2.1754 H         1 <0>         0.1951
     28 H5         -0.0174   -2.5473    3.0938 H         1 <0>         0.4247
     29 H6          0.2368   -3.5941    4.5944 H         1 <0>         0.1332
     30 H7          0.1598   -7.5912    6.1068 H         1 <0>         0.1370
     31 H8         -0.0095   -8.4722    3.8218 H         1 <0>         0.1390
     32 H9         -0.0304   -6.4360    0.8493 H         1 <0>         0.4195
     33 H10        -0.2231   -7.9873    1.4648 H         1 <0>         0.4010
     34 H11        -4.5229   -5.0670    7.3713 H         1 <0>         0.1715
     35 H12        -3.7769   -4.3486    9.7769 H         1 <0>         0.1782
     36 H13        -0.7202   -3.0742   10.0770 H         1 <0>         0.0807
     37 H14        -1.3774   -4.4455   11.0022 H         1 <0>         0.0904
     38 H15         0.0623   -4.6699    9.9799 H         1 <0>         0.0900
@<TRIPOS>BOND
     1    1    2 1
     2    1   24 1
     3    1   25 1
     4    1   26 1
     5    2    6 1
     6    2    3 2
     7    3    4 1
     8    3   27 1
     9    4    5 1
    10    5    6 2
    11    5    7 1
    12    7    8 am
    13    7   28 1
    14    8    9 2
    15    8   10 1
    16   10   15 ar
    17   10   11 ar
    18   11   12 ar
    19   11   29 1
    20   12   13 ar
    21   12   17 1
    22   13   14 ar
    23   13   30 1
    24   14   15 ar
    25   14   31 1
    26   15   16 1
    27   16   32 1
    28   16   33 1
    29   17   18 1
    30   18   22 1
    31   18   19 2
    32   19   20 1
    33   20   21 2
    34   20   34 1
    35   21   22 1
    36   21   35 1
    37   22   23 1
    38   23   36 1
    39   23   37 1
    40   23   38 1
@<TRIPOS>MOLECULE
CHEMBL490961
   40    42     0     0     0
SMALL
USER_CHARGES

@<TRIPOS>ATOM
      1 C1         -0.1467    1.5004    0.0135 C.3       1 <0>        -0.0799
      2 C2         -0.0903   -0.0055    0.0045 C.2       1 <0>         0.0863
      3 C3         -0.0569   -0.7059   -1.1557 C.2       1 <0>        -0.2832
      4 S1          0.0026   -2.3783   -0.5334 S.3       1 <0>         0.2160
      5 C4         -0.0210   -2.0160    1.1100 C.2       1 <0>         0.2483
      6 N1         -0.0656   -0.7012    1.1263 N.2       1 <0>        -0.5529
      7 N2          0.0056   -2.8922    2.1874 N.am      1 <0>        -0.6067
      8 C5          0.0577   -4.2219    1.9736 C.2       1 <0>         0.5830
      9 O1          0.0813   -4.6545    0.8373 O.2       1 <0>        -0.5156
     10 C6          0.0859   -5.1516    3.1169 C.ar      1 <0>        -0.2381
     11 C7          0.1829   -4.6586    4.4209 C.ar      1 <0>         0.0428
     12 C8          0.2089   -5.5378    5.4894 C.ar      1 <0>        -0.2092
     13 C9          0.1388   -6.9105    5.2685 C.ar      1 <0>         0.0323
     14 C10         0.0430   -7.4058    3.9851 C.ar      1 <0>        -0.2135
     15 C11         0.0098   -6.5362    2.9021 C.ar      1 <0>         0.3178
     16 N3         -0.0931   -7.0368    1.6082 N.pl3     1 <0>        -0.7175
     17 C12        -0.2924   -8.4720    1.3918 C.3       1 <0>         0.0761
     18 S2          0.3316   -4.9179    7.1342 S.3       1 <0>         0.1078
     19 C13        -1.3402   -4.8355    7.6846 C.2       1 <0>         0.1344
     20 N4         -2.4111   -5.0873    6.9682 N.2       1 <0>        -0.2852
     21 N5         -3.4644   -4.9293    7.6876 N.2       1 <0>        -0.2897
     22 C14        -3.1317   -4.5704    8.8953 C.2       1 <0>         0.1589
     23 N6         -1.7667   -4.5035    8.9386 N.pl3     1 <0>        -0.4684
     24 C15        -0.9347   -4.1470   10.0905 C.3       1 <0>         0.0708
     25 H1          0.8666    1.9020    0.0173 H         1 <0>         0.0752
     26 H2         -0.6725    1.8496   -0.8752 H         1 <0>         0.0764
     27 H3         -0.6751    1.8389    0.9047 H         1 <0>         0.0737
     28 H4         -0.0647   -0.3502   -2.1755 H         1 <0>         0.1953
     29 H5         -0.0132   -2.5471    3.0938 H         1 <0>         0.4246
     30 H6          0.2377   -3.5940    4.5944 H         1 <0>         0.1342
     31 H7          0.1600   -7.5912    6.1067 H         1 <0>         0.1377
     32 H8         -0.0106   -8.4720    3.8217 H         1 <0>         0.1407
     33 H9         -0.0329   -6.4356    0.8493 H         1 <0>         0.4225
     34 H10         0.5435   -9.0238    1.8219 H         1 <0>         0.0617
     35 H11        -1.2199   -8.7862    1.8703 H         1 <0>         0.0618
     36 H12        -0.3489   -8.6737    0.3221 H         1 <0>         0.0818
     37 H13        -3.8085   -4.3678    9.7122 H         1 <0>         0.2227
     38 H14        -0.7700   -3.0695   10.1001 H         1 <0>         0.0864
     39 H15        -1.4391   -4.4457   11.0094 H         1 <0>         0.0971
     40 H16         0.0241   -4.6605   10.0189 H         1 <0>         0.0937
@<TRIPOS>BOND
     1    1    2 1
     2    1   25 1
     3    1   26 1
     4    1   27 1
     5    2    6 1
     6    2    3 2
     7    3    4 1
     8    3   28 1
     9    4    5 1
    10    5    6 2
    11    5    7 1
    12    7    8 am
    13    7   29 1
    14    8    9 2
    15    8   10 1
    16   10   15 ar
    17   10   11 ar
    18   11   12 ar
    19   11   30 1
    20   12   13 ar
    21   12   18 1
    22   13   14 ar
    23   13   31 1
    24   14   15 ar
    25   14   32 1
    26   15   16 1
    27   16   17 1
    28   16   33 1
    29   17   34 1
    30   17   35 1
    31   17   36 1
    32   18   19 1
    33   19   23 1
    34   19   20 2
    35   20   21 1
    36   21   22 2
    37   22   23 1
    38   22   37 1
    39   23   24 1
    40   24   38 1
    41   24   39 1
    42   24   40 1
@<TRIPOS>MOLECULE
CHEMBL573064
   38    41     0     0     0
SMALL
USER_CHARGES

@<TRIPOS>ATOM
      1 C1          1.6660    1.3204    0.0284 C.3       1 <0>         0.1040
      2 N1          1.3917   -0.1186    0.0171 N.pl3     1 <0>        -0.3693
      3 C2          1.2502   -0.8901   -1.0813 C.2       1 <0>         0.0603
      4 C3          1.0077   -2.1557   -0.6710 C.2       1 <0>        -0.2615
      5 C4          1.0003   -2.1594    0.7333 C.2       1 <0>         0.2975
      6 N2          1.2364   -0.9355    1.1443 N.2       1 <0>        -0.3261
      7 N3          0.7840   -3.2748    1.5520 N.pl3     1 <0>        -0.5992
      8 C5          0.5512   -4.5113    0.9858 C.ar      1 <0>         0.4826
      9 C6          0.3242   -5.6513    1.7957 C.ar      1 <0>        -0.1761
     10 C7          0.3242   -5.5810    3.1928 C.ar      1 <0>        -0.0656
     11 C8          0.0968   -6.7253    3.9271 C.ar      1 <0>         0.0868
     12 C9         -0.1319   -7.9467    3.2887 C.ar      1 <0>        -0.0712
     13 C10        -0.1358   -8.0374    1.9297 C.ar      1 <0>        -0.0893
     14 C11         0.0913   -6.8921    1.1543 C.ar      1 <0>         0.1946
     15 N4          0.0956   -6.9343   -0.1871 N.ar      1 <0>        -0.5418
     16 C12         0.3116   -5.8460   -0.8864 C.ar      1 <0>         0.3478
     17 N5          0.5283   -4.6640   -0.3313 N.ar      1 <0>        -0.5732
     18 O1          0.0953   -6.6647    5.2849 O.3       1 <0>        -0.2341
     19 C13         1.1867   -7.1286    5.9444 C.ar      1 <0>         0.3244
     20 C14         1.1799   -7.1840    7.3337 C.ar      1 <0>        -0.1044
     21 C15         2.3003   -7.6595    7.9939 C.ar      1 <0>        -0.0327
     22 C16         3.3921   -8.0642    7.2378 C.ar      1 <0>        -0.1907
     23 C17         3.3287   -7.9813    5.8613 C.ar      1 <0>         0.1439
     24 N6          2.2449   -7.5288    5.2596 N.ar      1 <0>        -0.5129
     25 Cl1        -0.2139   -6.6637    8.2283 Cl        1 <0>        -0.0370
     26 H1          2.7435    1.4849    0.0312 H         1 <0>         0.0749
     27 H2          1.2306    1.7803   -0.8588 H         1 <0>         0.0902
     28 H3          1.2280    1.7668    0.9211 H         1 <0>         0.0885
     29 H4          1.3183   -0.5560   -2.1061 H         1 <0>         0.1788
     30 H5          0.8477   -3.0116   -1.3099 H         1 <0>         0.1857
     31 H6          0.7978   -3.1781    2.5170 H         1 <0>         0.4256
     32 H7          0.5011   -4.6395    3.6914 H         1 <0>         0.1343
     33 H8         -0.3077   -8.8321    3.8816 H         1 <0>         0.1382
     34 H9         -0.3134   -8.9891    1.4510 H         1 <0>         0.1502
     35 H10         0.3080   -5.9166   -1.9641 H         1 <0>         0.2014
     36 H11         2.3244   -7.7139    9.0723 H         1 <0>         0.1552
     37 H12         4.2817   -8.4397    7.7215 H         1 <0>         0.1506
     38 H13         4.1757   -8.2947    5.2690 H         1 <0>         0.1697
@<TRIPOS>BOND
     1    1    2 1
     2    1   26 1
     3    1   27 1
     4    1   28 1
     5    2    6 1
     6    2    3 1
     7    3    4 2
     8    3   29 1
     9    4    5 1
    10    4   30 1
    11    5    6 2
    12    5    7 1
    13    7    8 1
    14    7   31 1
    15    8   17 ar
    16    8    9 ar
    17    9   14 ar
    18    9   10 ar
    19   10   11 ar
    20   10   32 1
    21   11   12 ar
    22   11   18 1
    23   12   13 ar
    24   12   33 1
    25   13   14 ar
    26   13   34 1
    27   14   15 ar
    28   15   16 ar
    29   16   17 ar
    30   16   35 1
    31   18   19 1
    32   19   24 ar
    33   19   20 ar
    34   20   21 ar
    35   20   25 1
    36   21   22 ar
    37   21   36 1
    38   22   23 ar
    39   22   37 1
    40   23   24 ar
    41   23   38 1
@<TRIPOS>MOLECULE
CHEMBL573065
   44    47     0     0     0
SMALL
USER_CHARGES

@<TRIPOS>ATOM
      1 C1         -0.9103   -0.9046   -0.4626 C.3       1 <0>        -0.6452
      2 S1          0.6197   -0.0098   -0.8483 S.o2      1 <0>         2.4957
      3 O1          0.3364    1.3607   -1.0949 O.2       1 <0>        -0.9265
      4 O2          1.6480   -0.3852    0.0578 O.2       1 <0>        -0.9226
      5 C2          1.1378   -0.6492   -2.4063 C.ar      1 <0>        -0.6440
      6 C3          2.2763   -1.4284   -2.4899 C.ar      1 <0>        -0.0150
      7 C4          2.6839   -1.9312   -3.7112 C.ar      1 <0>        -0.0922
      8 C5          1.9546   -1.6563   -4.8537 C.ar      1 <0>        -0.0869
      9 C6          0.8146   -0.8773   -4.7763 C.ar      1 <0>         0.0825
     10 C7          0.4003   -0.3757   -3.5481 C.ar      1 <0>         0.1196
     11 O3         -0.7225    0.3861   -3.4674 O.3       1 <0>        -0.2520
     12 C8         -0.6119    1.7153   -3.7283 C.ar      1 <0>         0.1650
     13 C9          0.6315    2.2518   -4.0721 C.ar      1 <0>        -0.1213
     14 C10         0.7725    3.5799   -4.3383 C.ar      1 <0>        -0.0451
     15 C11        -0.3424    4.4268   -4.2686 C.ar      1 <0>         0.1652
     16 C12        -1.6057    3.8887   -3.9210 C.ar      1 <0>        -0.1190
     17 C13        -1.7285    2.5204   -3.6565 C.ar      1 <0>        -0.1302
     18 C14        -2.7136    4.7684   -3.8590 C.ar      1 <0>         0.4268
     19 N1         -2.5113    6.0507   -4.1297 N.ar      1 <0>        -0.5594
     20 C15        -1.3115    6.5085   -4.4502 C.ar      1 <0>         0.3235
     21 N2         -0.2504    5.7408   -4.5230 N.ar      1 <0>        -0.4833
     22 N3         -3.9707    4.3035   -3.5263 N.pl3     1 <0>        -0.6136
     23 C16        -5.0691    5.1565   -3.5947 C.ar      1 <0>         0.4121
     24 C17        -4.9945    6.3365   -4.3333 C.ar      1 <0>        -0.1055
     25 C18        -6.1156    7.1510   -4.3701 C.ar      1 <0>        -0.0167
     26 C19        -7.2420    6.7424   -3.6704 C.ar      1 <0>         0.1020
     27 N4         -7.2246    5.6093   -2.9966 N.ar      1 <0>        -0.1973
     28 N5         -6.1920    4.8478   -2.9627 N.ar      1 <0>        -0.3216
     29 F1          0.1019   -0.6085   -5.8921 F         1 <0>        -0.1191
     30 H1         -1.6082   -0.8063   -1.2941 H         1 <0>         0.1345
     31 H2         -0.6839   -1.9585   -0.3009 H         1 <0>         0.1377
     32 H3         -1.3582   -0.4867    0.4390 H         1 <0>         0.1384
     33 H4          2.8484   -1.6443   -1.5997 H         1 <0>         0.1670
     34 H5          3.5740   -2.5398   -3.7735 H         1 <0>         0.1585
     35 H6          2.2757   -2.0498   -5.8068 H         1 <0>         0.1595
     36 H7          1.4937    1.6037   -4.1273 H         1 <0>         0.1451
     37 H8          1.7406    3.9796   -4.6020 H         1 <0>         0.1614
     38 H9         -2.6881    2.0997   -3.3945 H         1 <0>         0.1404
     39 H10        -1.2013    7.5618   -4.6618 H         1 <0>         0.2157
     40 H11        -4.0884    3.3827   -3.2449 H         1 <0>         0.4425
     41 H12        -4.0914    6.6077   -4.8600 H         1 <0>         0.2270
     42 H13        -6.1123    8.0766   -4.9267 H         1 <0>         0.1990
     43 H14        -8.1329    7.3528   -3.6775 H         1 <0>         0.2293
     44 H15        -6.2336    4.0223   -2.4549 H         1 <0>         0.4682
@<TRIPOS>BOND
     1    1    2 1
     2    1   30 1
     3    1   31 1
     4    1   32 1
     5    2    3 2
     6    2    4 2
     7    2    5 1
     8    5   10 ar
     9    5    6 ar
    10    6    7 ar
    11    6   33 1
    12    7    8 ar
    13    7   34 1
    14    8    9 ar
    15    8   35 1
    16    9   10 ar
    17    9   29 1
    18   10   11 1
    19   11   12 1
    20   12   17 ar
    21   12   13 ar
    22   13   14 ar
    23   13   36 1
    24   14   15 ar
    25   14   37 1
    26   15   21 ar
    27   15   16 ar
    28   16   17 ar
    29   16   18 ar
    30   17   38 1
    31   18   19 ar
    32   18   22 1
    33   19   20 ar
    34   20   21 ar
    35   20   39 1
    36   22   23 1
    37   22   40 1
    38   23   24 ar
    39   23   28 ar
    40   24   41 1
    41   24   25 ar
    42   25   42 1
    43   25   26 ar
    44   26   43 1
    45   26   27 ar
    46   27   28 ar
    47   28   44 1
@<TRIPOS>MOLECULE
CHEMBL573065__1
   44    47     0     0     0
SMALL
USER_CHARGES

@<TRIPOS>ATOM
      1 C1         -1.6239   -0.9040   -0.1320 C.3       1 <0>        -0.6450
      2 S1         -0.0352   -0.0410    0.0164 S.o2      1 <0>         2.4948
      3 O1         -0.2181    1.3562   -0.1667 O.2       1 <0>        -0.9242
      4 O2          0.6884   -0.5365    1.1345 O.2       1 <0>        -0.9244
      5 C2          0.8950   -0.5604   -1.3871 C.ar      1 <0>        -0.6433
      6 C3          2.0508   -1.2988   -1.2158 C.ar      1 <0>        -0.0155
      7 C4          2.7816   -1.7075   -2.3156 C.ar      1 <0>        -0.0937
      8 C5          2.3591   -1.3791   -3.5910 C.ar      1 <0>        -0.0876
      9 C6          1.2036   -0.6405   -3.7686 C.ar      1 <0>         0.0817
     10 C7          0.4649   -0.2333   -2.6640 C.ar      1 <0>         0.1224
     11 O3         -0.6742    0.4884   -2.8349 O.3       1 <0>        -0.2549
     12 C8         -0.5597    1.8335   -2.9923 C.ar      1 <0>         0.1519
     13 C9          0.7054    2.4263   -2.9801 C.ar      1 <0>        -0.1240
     14 C10         0.8507    3.7714   -3.1359 C.ar      1 <0>        -0.0472
     15 C11        -0.2816    4.5789   -3.3116 C.ar      1 <0>         0.1608
     16 C12        -1.5669    3.9837   -3.3248 C.ar      1 <0>        -0.1257
     17 C13        -1.6924    2.5991   -3.1681 C.ar      1 <0>        -0.1253
     18 C14        -2.6920    4.8246   -3.5046 C.ar      1 <0>         0.4179
     19 N1         -2.4843    6.1260   -3.6513 N.ar      1 <0>        -0.5260
     20 C15        -1.2638    6.6376   -3.6321 C.ar      1 <0>         0.3213
     21 N2         -0.1862    5.9078   -3.4692 N.ar      1 <0>        -0.4956
     22 N3         -3.9706    4.3034   -3.5271 N.pl3     1 <0>        -0.5967
     23 C16        -5.0690    5.1564   -3.5959 C.ar      1 <0>         0.3775
     24 C17        -6.3621    4.6418   -3.5084 C.ar      1 <0>        -0.0691
     25 C18        -7.4211    5.5328   -3.5819 C.ar      1 <0>        -0.0606
     26 C19        -7.1299    6.8808   -3.7380 C.ar      1 <0>         0.1058
     27 N4         -5.8759    7.2802   -3.8119 N.ar      1 <0>        -0.2328
     28 N5         -4.8903    6.4612   -3.7395 N.ar      1 <0>        -0.2174
     29 F1          0.7906   -0.3195   -5.0142 F         1 <0>        -0.1193
     30 H1         -2.0881   -0.6492   -1.0848 H         1 <0>         0.1354
     31 H2         -1.4585   -1.9803   -0.0847 H         1 <0>         0.1368
     32 H3         -2.2796   -0.6009    0.6842 H         1 <0>         0.1380
     33 H4          2.3835   -1.5566   -0.2213 H         1 <0>         0.1663
     34 H5          3.6844   -2.2841   -2.1788 H         1 <0>         0.1576
     35 H6          2.9321   -1.6994   -4.4486 H         1 <0>         0.1586
     36 H7          1.5810    1.8088   -2.8448 H         1 <0>         0.1424
     37 H8          1.8354    4.2148   -3.1238 H         1 <0>         0.1576
     38 H9         -2.6676    2.1351   -3.1812 H         1 <0>         0.1400
     39 H10        -1.1499    7.7044   -3.7565 H         1 <0>         0.2071
     40 H11        -4.1036    3.3431   -3.4948 H         1 <0>         0.4488
     41 H12        -6.5329    3.5823   -3.3874 H         1 <0>         0.1936
     42 H13        -8.4428    5.1882   -3.5199 H         1 <0>         0.2054
     43 H14        -7.9309    7.6027   -3.7993 H         1 <0>         0.2258
     44 H15        -5.6914    8.2262   -3.9210 H         1 <0>         0.4809
@<TRIPOS>BOND
     1    1    2 1
     2    1   30 1
     3    1   31 1
     4    1   32 1
     5    2    3 2
     6    2    4 2
     7    2    5 1
     8    5   10 ar
     9    5    6 ar
    10    6    7 ar
    11    6   33 1
    12    7    8 ar
    13    7   34 1
    14    8    9 ar
    15    8   35 1
    16    9   10 ar
    17    9   29 1
    18   10   11 1
    19   11   12 1
    20   12   17 ar
    21   12   13 ar
    22   13   14 ar
    23   13   36 1
    24   14   15 ar
    25   14   37 1
    26   15   21 ar
    27   15   16 ar
    28   16   17 ar
    29   16   18 ar
    30   17   38 1
    31   18   19 ar
    32   18   22 1
    33   19   20 ar
    34   20   21 ar
    35   20   39 1
    36   22   23 1
    37   22   40 1
    38   23   28 ar
    39   23   24 ar
    40   24   25 ar
    41   24   41 1
    42   25   26 ar
    43   25   42 1
    44   26   27 ar
    45   26   43 1
    46   27   28 ar
    47   27   44 1
@<TRIPOS>MOLECULE
CHEMBL573065__2
   43    46     0     0     0
SMALL
USER_CHARGES

@<TRIPOS>ATOM
      1 C1         -1.6239   -0.9040   -0.1320 C.3       1 <0>        -0.6453
      2 S1         -0.0352   -0.0410    0.0164 S.o2      1 <0>         2.4942
      3 O1         -0.2181    1.3562   -0.1667 O.2       1 <0>        -0.9168
      4 O2          0.6884   -0.5365    1.1345 O.2       1 <0>        -0.9303
      5 C2          0.8950   -0.5604   -1.3871 C.ar      1 <0>        -0.6447
      6 C3          2.0508   -1.2988   -1.2158 C.ar      1 <0>        -0.0181
      7 C4          2.7816   -1.7075   -2.3156 C.ar      1 <0>        -0.1006
      8 C5          2.3591   -1.3791   -3.5910 C.ar      1 <0>        -0.0895
      9 C6          1.2036   -0.6405   -3.7686 C.ar      1 <0>         0.0789
     10 C7          0.4649   -0.2333   -2.6640 C.ar      1 <0>         0.1344
     11 O3         -0.6742    0.4884   -2.8349 O.3       1 <0>        -0.2599
     12 C8         -0.5597    1.8335   -2.9923 C.ar      1 <0>         0.1250
     13 C9          0.7054    2.4263   -2.9801 C.ar      1 <0>        -0.1278
     14 C10         0.8507    3.7714   -3.1359 C.ar      1 <0>        -0.0574
     15 C11        -0.2816    4.5789   -3.3116 C.ar      1 <0>         0.1654
     16 C12        -1.5669    3.9837   -3.3248 C.ar      1 <0>        -0.1459
     17 C13        -1.6924    2.5991   -3.1682 C.ar      1 <0>        -0.1048
     18 C14        -2.6920    4.8246   -3.5046 C.ar      1 <0>         0.4463
     19 N1         -2.4843    6.1260   -3.6513 N.ar      1 <0>        -0.5156
     20 C15        -1.2638    6.6376   -3.6321 C.ar      1 <0>         0.3333
     21 N2         -0.1862    5.9078   -3.4692 N.ar      1 <0>        -0.5289
     22 N3         -3.9706    4.3034   -3.5271 N.pl3     1 <0>        -0.6187
     23 C16        -5.0690    5.1564   -3.5959 C.ar      1 <0>         0.3003
     24 C17        -6.3621    4.6418   -3.5084 C.ar      1 <0>        -0.1560
     25 C18        -7.4211    5.5328   -3.5819 C.ar      1 <0>        -0.0876
     26 C19        -7.1299    6.8808   -3.7380 C.ar      1 <0>         0.0070
     27 N4         -5.8759    7.2802   -3.8119 N.ar      1 <0>        -0.2114
     28 N5         -4.8903    6.4612   -3.7395 N.ar      1 <0>        -0.2182
     29 F1          0.7906   -0.3195   -5.0142 F         1 <0>        -0.1190
     30 H1         -2.0881   -0.6492   -1.0848 H         1 <0>         0.1374
     31 H2         -1.4585   -1.9803   -0.0847 H         1 <0>         0.1340
     32 H3         -2.2796   -0.6009    0.6842 H         1 <0>         0.1374
     33 H4          2.3835   -1.5566   -0.2213 H         1 <0>         0.1635
     34 H5          3.6844   -2.2841   -2.1788 H         1 <0>         0.1539
     35 H6          2.9321   -1.6994   -4.4486 H         1 <0>         0.1555
     36 H7          1.5810    1.8088   -2.8448 H         1 <0>         0.1340
     37 H8          1.8354    4.2148   -3.1238 H         1 <0>         0.1499
     38 H9         -2.6676    2.1351   -3.1812 H         1 <0>         0.1368
     39 H10        -1.1499    7.7044   -3.7565 H         1 <0>         0.2012
     40 H11        -4.1036    3.3431   -3.4948 H         1 <0>         0.4301
     41 H12        -6.5329    3.5823   -3.3874 H         1 <0>         0.1500
     42 H13        -8.4428    5.1882   -3.5199 H         1 <0>         0.1544
     43 H14        -7.9309    7.6027   -3.7993 H         1 <0>         0.1735
@<TRIPOS>BOND
     1    1    2 1
     2    1   30 1
     3    1   31 1
     4    1   32 1
     5    2    3 2
     6    2    4 2
     7    2    5 1
     8    5   10 ar
     9    5    6 ar
    10    6    7 ar
    11    6   33 1
    12    7    8 ar
    13    7   34 1
    14    8    9 ar
    15    8   35 1
    16    9   10 ar
    17    9   29 1
    18   10   11 1
    19   11   12 1
    20   12   17 ar
    21   12   13 ar
    22   13   14 ar
    23   13   36 1
    24   14   15 ar
    25   14   37 1
    26   15   21 ar
    27   15   16 ar
    28   16   17 ar
    29   16   18 ar
    30   17   38 1
    31   18   19 ar
    32   18   22 1
    33   19   20 ar
    34   20   21 ar
    35   20   39 1
    36   22   23 1
    37   22   40 1
    38   23   28 ar
    39   23   24 ar
    40   24   25 ar
    41   24   41 1
    42   25   26 ar
    43   25   42 1
    44   26   27 ar
    45   26   43 1
    46   27   28 ar
@<TRIPOS>MOLECULE
CHEMBL576936
   43    46     0     0     0
SMALL
USER_CHARGES

@<TRIPOS>ATOM
      1 C1         -1.6239   -0.9040   -0.1320 C.3       1 <0>        -0.6452
      2 S1         -0.0352   -0.0411    0.0164 S.o2      1 <0>         2.4941
      3 O1         -0.2182    1.3562   -0.1666 O.2       1 <0>        -0.9173
      4 O2          0.6883   -0.5366    1.1346 O.2       1 <0>        -0.9304
      5 C2          0.8950   -0.5604   -1.3870 C.ar      1 <0>        -0.6446
      6 C3          2.0507   -1.2988   -1.2158 C.ar      1 <0>        -0.0181
      7 C4          2.7818   -1.7071   -2.3155 C.ar      1 <0>        -0.1005
      8 C5          2.3596   -1.3783   -3.5909 C.ar      1 <0>        -0.0895
      9 C6          1.2038   -0.6401   -3.7685 C.ar      1 <0>         0.0790
     10 C7          0.4649   -0.2334   -2.6639 C.ar      1 <0>         0.1343
     11 O3         -0.6742    0.4884   -2.8349 O.3       1 <0>        -0.2595
     12 C8         -0.5597    1.8334   -2.9922 C.ar      1 <0>         0.1256
     13 C9          0.7054    2.4263   -2.9799 C.ar      1 <0>        -0.1273
     14 C10         0.8507    3.7715   -3.1353 C.ar      1 <0>        -0.0581
     15 C11        -0.2817    4.5790   -3.3106 C.ar      1 <0>         0.1650
     16 C12        -1.5670    3.9838   -3.3239 C.ar      1 <0>        -0.1464
     17 C13        -1.6924    2.5991   -3.1681 C.ar      1 <0>        -0.1046
     18 C14        -2.6920    4.8247   -3.5033 C.ar      1 <0>         0.4478
     19 N1         -2.4844    6.1262   -3.6496 N.ar      1 <0>        -0.5166
     20 C15        -1.2639    6.6378   -3.6303 C.ar      1 <0>         0.3293
     21 N2         -0.1862    5.9079   -3.4677 N.ar      1 <0>        -0.5297
     22 N3         -3.9707    4.3035   -3.5258 N.pl3     1 <0>        -0.6193
     23 C16        -5.0687    5.1563   -3.5943 C.ar      1 <0>         0.3166
     24 C17        -6.3598    4.6408   -3.5067 C.ar      1 <0>         0.0201
     25 N4         -7.3978    5.4526   -3.5716 N.ar      1 <0>        -0.4105
     26 C18        -7.2134    6.7540   -3.7196 C.ar      1 <0>         0.0084
     27 C19        -5.9340    7.2689   -3.8073 C.ar      1 <0>         0.0898
     28 N5         -4.8884    6.4626   -3.7376 N.ar      1 <0>        -0.4208
     29 F1          0.7911   -0.3187   -5.0141 F         1 <0>        -0.1190
     30 H1         -2.0881   -0.6492   -1.0848 H         1 <0>         0.1376
     31 H2         -1.4586   -1.9803   -0.0847 H         1 <0>         0.1341
     32 H3         -2.2797   -0.6009    0.6842 H         1 <0>         0.1377
     33 H4          2.3833   -1.5569   -0.2212 H         1 <0>         0.1635
     34 H5          3.6846   -2.2837   -2.1787 H         1 <0>         0.1539
     35 H6          2.9330   -1.6980   -4.4484 H         1 <0>         0.1555
     36 H7          1.5810    1.8087   -2.8449 H         1 <0>         0.1340
     37 H8          1.8354    4.2149   -3.1231 H         1 <0>         0.1496
     38 H9         -2.6676    2.1351   -3.1812 H         1 <0>         0.1377
     39 H10        -1.1501    7.7046   -3.7543 H         1 <0>         0.1990
     40 H11        -4.1037    3.3432   -3.4939 H         1 <0>         0.4316
     41 H12        -6.5109    3.5782   -3.3862 H         1 <0>         0.1676
     42 H13        -8.0651    7.4160   -3.7724 H         1 <0>         0.1713
     43 H14        -5.7879    8.3321   -3.9284 H         1 <0>         0.1743
@<TRIPOS>BOND
     1    1    2 1
     2    1   30 1
     3    1   31 1
     4    1   32 1
     5    2    3 2
     6    2    4 2
     7    2    5 1
     8    5   10 ar
     9    5    6 ar
    10    6    7 ar
    11    6   33 1
    12    7    8 ar
    13    7   34 1
    14    8    9 ar
    15    8   35 1
    16    9   10 ar
    17    9   29 1
    18   10   11 1
    19   11   12 1
    20   12   17 ar
    21   12   13 ar
    22   13   14 ar
    23   13   36 1
    24   14   15 ar
    25   14   37 1
    26   15   21 ar
    27   15   16 ar
    28   16   17 ar
    29   16   18 ar
    30   17   38 1
    31   18   19 ar
    32   18   22 1
    33   19   20 ar
    34   20   21 ar
    35   20   39 1
    36   22   23 1
    37   22   40 1
    38   23   28 ar
    39   23   24 ar
    40   24   25 ar
    41   24   41 1
    42   25   26 ar
    43   26   27 ar
    44   26   42 1
    45   27   28 ar
    46   27   43 1
@<TRIPOS>MOLECULE
CHEMBL181943
   43    45     0     0     0
SMALL
USER_CHARGES

@<TRIPOS>ATOM
      1 C1          0.1379    1.5688    0.5463 C.3       1 <0>        -0.1221
      2 C2          0.1144    0.0680    0.4109 C.ar      1 <0>        -0.0718
      3 C3          1.2504   -0.6682    0.6931 C.ar      1 <0>        -0.0972
      4 C4          1.2322   -2.0436    0.5700 C.ar      1 <0>        -0.1100
      5 C5          0.0714   -2.6881    0.1623 C.ar      1 <0>         0.1655
      6 C6         -1.0681   -1.9472   -0.1205 C.ar      1 <0>        -0.0900
      7 C7         -1.0456   -0.5710    0.0099 C.ar      1 <0>        -0.0263
      8 Cl1        -2.4718    0.3564   -0.3359 Cl        1 <0>        -0.0597
      9 N1          0.0506   -4.0816    0.0364 N.am      1 <0>        -0.5746
     10 C8          0.1869   -4.9266    1.2253 C.3       1 <0>         0.1077
     11 C9         -1.2016   -5.3198    1.7335 C.3       1 <0>        -0.1185
     12 C10        -1.9292   -4.0808    2.2951 C.3       1 <0>        -0.1142
     13 C11        -2.7118   -4.6215    3.5175 C.3       1 <0>        -0.1262
     14 C12        -1.7281   -5.6526    4.1243 C.3       1 <0>        -0.1244
     15 C13        -1.0737   -6.3192    2.8966 C.3       1 <0>        -0.1196
     16 C14        -0.0949   -4.6464   -1.1787 C.2       1 <0>         0.7037
     17 O1         -0.1123   -3.9495   -2.1748 O.2       1 <0>        -0.5039
     18 N2         -0.2211   -5.9836   -1.2895 N.am      1 <0>        -0.6259
     19 C15        -0.3712   -6.5663   -2.5430 C.2       1 <0>         0.2913
     20 N3         -0.4064   -5.9778   -3.7185 N.2       1 <0>        -0.5092
     21 C16        -0.5565   -6.6784   -4.8286 C.2       1 <0>         0.0915
     22 C17        -0.6715   -8.0234   -4.6968 C.2       1 <0>        -0.1966
     23 S1         -0.5444   -8.1963   -2.9244 S.3       1 <0>         0.1692
     24 Cl2        -0.8781   -9.2417   -5.9162 Cl        1 <0>         0.0326
     25 H1         -0.1494    1.8466    1.5604 H         1 <0>         0.0780
     26 H2          1.1430    1.9365    0.3398 H         1 <0>         0.0734
     27 H3         -0.5628    2.0086   -0.1633 H         1 <0>         0.0751
     28 H4          2.1531   -0.1669    1.0097 H         1 <0>         0.1385
     29 H5          2.1202   -2.6176    0.7903 H         1 <0>         0.1320
     30 H6         -1.9722   -2.4456   -0.4377 H         1 <0>         0.1323
     31 H7          0.7483   -5.8254    0.9699 H         1 <0>         0.0795
     32 H8          0.7163   -4.3765    2.0033 H         1 <0>         0.0980
     33 H9         -1.7839   -5.7609    0.9246 H         1 <0>         0.0743
     34 H10        -1.2091   -3.3245    2.6073 H         1 <0>         0.0686
     35 H11        -2.6153   -3.6725    1.5531 H         1 <0>         0.0641
     36 H12        -2.9195   -3.8213    4.2279 H         1 <0>         0.0675
     37 H13        -3.6346   -5.1078    3.2011 H         1 <0>         0.0667
     38 H14        -0.9755   -5.1501    4.7319 H         1 <0>         0.0667
     39 H15        -2.2674   -6.3913    4.7173 H         1 <0>         0.0669
     40 H16        -1.5947   -7.2449    2.6524 H         1 <0>         0.0695
     41 H17        -0.0225   -6.5240    3.0990 H         1 <0>         0.0691
     42 H18        -0.2072   -6.5396   -0.4948 H         1 <0>         0.4236
     43 H19        -0.5866   -6.2015   -5.7971 H         1 <0>         0.1848
@<TRIPOS>BOND
     1    1    2 1
     2    1   25 1
     3    1   26 1
     4    1   27 1
     5    2    7 ar
     6    2    3 ar
     7    3    4 ar
     8    3   28 1
     9    4    5 ar
    10    4   29 1
    11    5    6 ar
    12    5    9 1
    13    6    7 ar
    14    6   30 1
    15    7    8 1
    16    9   10 1
    17    9   16 am
    18   10   11 1
    19   10   31 1
    20   10   32 1
    21   11   15 1
    22   11   12 1
    23   11   33 1
    24   12   13 1
    25   12   34 1
    26   12   35 1
    27   13   14 1
    28   13   36 1
    29   13   37 1
    30   14   15 1
    31   14   38 1
    32   14   39 1
    33   15   40 1
    34   15   41 1
    35   16   17 2
    36   16   18 am
    37   18   19 1
    38   18   42 1
    39   19   23 1
    40   19   20 2
    41   20   21 1
    42   21   22 2
    43   21   43 1
    44   22   23 1
    45   22   24 1
@<TRIPOS>MOLECULE
CHEMBL572840
   43    46     0     0     0
SMALL
USER_CHARGES

@<TRIPOS>ATOM
      1 C1         -0.0184    1.5028    0.0103 C.3       1 <0>        -0.1179
      2 C2          0.0021   -0.0041    0.0020 C.ar      1 <0>        -0.0859
      3 C3          0.0058   -0.6872   -1.1986 C.ar      1 <0>        -0.0792
      4 C4          0.0250   -2.0718   -1.2168 C.ar      1 <0>        -0.1075
      5 C5          0.0406   -2.7829   -0.0358 C.ar      1 <0>        -0.0648
      6 C6          0.0371   -2.1049    1.1853 C.ar      1 <0>        -0.0292
      7 C7          0.0229   -0.7027    1.1993 C.ar      1 <0>         0.1188
      8 O1          0.0245   -0.0328    2.3793 O.3       1 <0>        -0.2489
      9 C8         -1.1745    0.2654    2.9453 C.ar      1 <0>         0.1107
     10 C9         -2.3558   -0.1247    2.3096 C.ar      1 <0>        -0.1382
     11 C10        -3.5716    0.1604    2.8534 C.ar      1 <0>        -0.0629
     12 C11        -3.6457    0.8553    4.0685 C.ar      1 <0>         0.1668
     13 C12        -2.4515    1.2534    4.7176 C.ar      1 <0>        -0.1515
     14 C13        -1.2135    0.9451    4.1440 C.ar      1 <0>        -0.1072
     15 C14        -2.5580    1.9536    5.9442 C.ar      1 <0>         0.4757
     16 N1         -3.7707    2.2003    6.4217 N.ar      1 <0>        -0.5679
     17 C15        -4.8592    1.8082    5.7791 C.ar      1 <0>         0.3378
     18 N2         -4.8210    1.1572    4.6409 N.ar      1 <0>        -0.5358
     19 N3         -1.4310    2.3674    6.6242 N.pl3     1 <0>        -0.5993
     20 C16        -1.5584    3.0584    7.8356 C.2       1 <0>         0.2985
     21 C17        -2.7648    3.3908    8.4729 C.2       1 <0>        -0.2623
     22 C18        -2.4632    4.0527    9.6129 C.2       1 <0>         0.0602
     23 N4         -1.1189    4.1385    9.6986 N.pl3     1 <0>        -0.3698
     24 N5         -0.5710    3.5037    8.5766 N.2       1 <0>        -0.3264
     25 C19        -0.3647    4.7790   10.7789 C.3       1 <0>         0.1041
     26 C20         0.0527   -2.8372    2.4158 C.1       1 <0>         0.2456
     27 N6          0.0651   -3.4182    3.3919 N.1       1 <0>        -0.3937
     28 H1          1.0042    1.8801    0.0026 H         1 <0>         0.0823
     29 H2         -0.5455    1.8639   -0.8728 H         1 <0>         0.0768
     30 H3         -0.5286    1.8543    0.9071 H         1 <0>         0.0704
     31 H4         -0.0067   -0.1383   -2.1286 H         1 <0>         0.1418
     32 H5          0.0273   -2.5970   -2.1606 H         1 <0>         0.1432
     33 H6          0.0552   -3.8626   -0.0548 H         1 <0>         0.1430
     34 H7         -2.3043   -0.6600    1.3730 H         1 <0>         0.1410
     35 H8         -4.4758   -0.1476    2.3496 H         1 <0>         0.1500
     36 H9         -0.2971    1.2402    4.6335 H         1 <0>         0.1381
     37 H10        -5.8227    2.0342    6.2116 H         1 <0>         0.2005
     38 H11        -0.5505    2.1797    6.2631 H         1 <0>         0.4261
     39 H12        -3.7574    3.1594    8.1156 H         1 <0>         0.1854
     40 H13        -3.1721    4.4432   10.3280 H         1 <0>         0.1785
     41 H14        -0.1533    4.0468   11.5582 H         1 <0>         0.0747
     42 H15         0.5729    5.1710   10.3846 H         1 <0>         0.0884
     43 H16        -0.9524    5.5959   11.1977 H         1 <0>         0.0901
@<TRIPOS>BOND
     1    1    2 1
     2    1   28 1
     3    1   29 1
     4    1   30 1
     5    2    7 ar
     6    2    3 ar
     7    3    4 ar
     8    3   31 1
     9    4    5 ar
    10    4   32 1
    11    5    6 ar
    12    5   33 1
    13    6    7 ar
    14    6   26 1
    15    7    8 1
    16    8    9 1
    17    9   14 ar
    18    9   10 ar
    19   10   11 ar
    20   10   34 1
    21   11   12 ar
    22   11   35 1
    23   12   18 ar
    24   12   13 ar
    25   13   14 ar
    26   13   15 ar
    27   14   36 1
    28   15   16 ar
    29   15   19 1
    30   16   17 ar
    31   17   18 ar
    32   17   37 1
    33   19   20 1
    34   19   38 1
    35   20   24 2
    36   20   21 1
    37   21   22 2
    38   21   39 1
    39   22   23 1
    40   22   40 1
    41   23   24 1
    42   23   25 1
    43   25   41 1
    44   25   42 1
    45   25   43 1
    46   26   27 3
@<TRIPOS>MOLECULE
CHEMBL559975
   53    56     0     0     0
SMALL
USER_CHARGES

@<TRIPOS>ATOM
      1 C1         -0.9506   -6.7474   -3.8622 C.3       1 <0>        -0.6511
      2 S1         -0.5730   -6.2305   -5.5596 S.o2      1 <0>         2.5032
      3 O1          0.2604   -7.1931   -6.1904 O.2       1 <0>        -0.9374
      4 O2         -1.7503   -5.7600   -6.2013 O.2       1 <0>        -0.9364
      5 C2          0.4438   -4.8025   -5.3824 C.ar      1 <0>        -0.6921
      6 C3         -0.1339   -3.5482   -5.3126 C.ar      1 <0>         0.0149
      7 C4          0.6609   -2.4271   -5.1732 C.ar      1 <0>        -0.1605
      8 C5          2.0403   -2.5604   -5.1034 C.ar      1 <0>         0.1741
      9 C6          2.6176   -3.8203   -5.1737 C.ar      1 <0>        -0.2181
     10 C7          1.8178   -4.9386   -5.3077 C.ar      1 <0>         0.0169
     11 O3          2.8245   -1.4591   -4.9668 O.3       1 <0>        -0.2446
     12 C8          4.1608   -1.6438   -4.8026 C.ar      1 <0>         0.1166
     13 C9          4.9496   -1.9909   -5.8874 C.ar      1 <0>        -0.1424
     14 C10         6.3214   -2.1798   -5.7177 C.ar      1 <0>        -0.0745
     15 C11         6.8931   -2.0181   -4.4549 C.ar      1 <0>        -0.1446
     16 C12         6.0973   -1.6711   -3.3759 C.ar      1 <0>         0.1509
     17 C13         4.7342   -1.4790   -3.5500 C.ar      1 <0>        -0.1253
     18 O4          6.6530   -1.5139   -2.1457 O.3       1 <0>        -0.2972
     19 C14         8.0778   -1.5864   -2.0633 C.3       1 <0>         0.0720
     20 C15         8.5115   -3.0080   -1.6502 C.3       1 <0>        -0.1463
     21 C16         9.7284   -2.7786   -0.7198 C.3       1 <0>        -0.1242
     22 C17         9.3197   -1.5111    0.0711 C.3       1 <0>        -0.1239
     23 C18         8.5916   -0.6346   -0.9689 C.3       1 <0>        -0.1245
     24 C19         7.1670   -2.5506   -6.8721 C.2       1 <0>         0.5576
     25 O5          8.3621   -2.7148   -6.7223 O.2       1 <0>        -0.4560
     26 N1          6.6128   -2.7067   -8.0908 N.am      1 <0>        -0.6179
     27 C20         7.4073   -3.0552   -9.1755 C.2       1 <0>         0.2667
     28 N2          8.7038   -3.2773   -9.2014 N.2       1 <0>        -0.5201
     29 C21         9.3179   -3.6030  -10.3237 C.2       1 <0>         0.0616
     30 C22         8.5535   -3.6967  -11.4395 C.2       1 <0>        -0.2399
     31 S2          6.9441   -3.3029  -10.7744 S.3       1 <0>         0.1174
     32 H1         -0.0231   -6.9755   -3.3371 H         1 <0>         0.1312
     33 H2         -1.4726   -5.9424   -3.3449 H         1 <0>         0.1320
     34 H3         -1.5831   -7.6349   -3.8849 H         1 <0>         0.1337
     35 H4         -1.2076   -3.4449   -5.3674 H         1 <0>         0.1531
     36 H5          0.2092   -1.4476   -5.1191 H         1 <0>         0.1464
     37 H6          3.6909   -3.9267   -5.1199 H         1 <0>         0.1398
     38 H7          2.2663   -5.9198   -5.3581 H         1 <0>         0.1474
     39 H8          4.5032   -2.1154   -6.8629 H         1 <0>         0.1376
     40 H9          7.9546   -2.1638   -4.3191 H         1 <0>         0.1543
     41 H10         4.1171   -1.2044   -2.7073 H         1 <0>         0.1508
     42 H11         8.5209   -1.3244   -3.0241 H         1 <0>         0.0848
     43 H12         7.7084   -3.5104   -1.1110 H         1 <0>         0.0820
     44 H13         8.8047   -3.5870   -2.5260 H         1 <0>         0.0744
     45 H14         9.8659   -3.6256   -0.0477 H         1 <0>         0.0743
     46 H15        10.6312   -2.5959   -1.3025 H         1 <0>         0.0722
     47 H16         8.6471   -1.7716    0.8883 H         1 <0>         0.0709
     48 H17        10.2027   -0.9976    0.4515 H         1 <0>         0.0726
     49 H18         9.2848    0.0887   -1.3984 H         1 <0>         0.0798
     50 H19         7.7542   -0.1174   -0.5005 H         1 <0>         0.0828
     51 H20         5.6592   -2.5757   -8.2103 H         1 <0>         0.4258
     52 H21        10.3818   -3.7863  -10.3518 H         1 <0>         0.1780
     53 H22         8.8388   -3.9453  -12.4510 H         1 <0>         0.2014
@<TRIPOS>BOND
     1    1    2 1
     2    1   32 1
     3    1   33 1
     4    1   34 1
     5    2    3 2
     6    2    4 2
     7    2    5 1
     8    5   10 ar
     9    5    6 ar
    10    6    7 ar
    11    6   35 1
    12    7    8 ar
    13    7   36 1
    14    8    9 ar
    15    8   11 1
    16    9   10 ar
    17    9   37 1
    18   10   38 1
    19   11   12 1
    20   12   17 ar
    21   12   13 ar
    22   13   14 ar
    23   13   39 1
    24   14   15 ar
    25   14   24 1
    26   15   16 ar
    27   15   40 1
    28   16   17 ar
    29   16   18 1
    30   17   41 1
    31   18   19 1
    32   19   23 1
    33   19   20 1
    34   19   42 1
    35   20   21 1
    36   20   43 1
    37   20   44 1
    38   21   22 1
    39   21   45 1
    40   21   46 1
    41   22   23 1
    42   22   47 1
    43   22   48 1
    44   23   49 1
    45   23   50 1
    46   24   25 2
    47   24   26 am
    48   26   27 1
    49   26   51 1
    50   27   31 1
    51   27   28 2
    52   28   29 1
    53   29   30 2
    54   29   52 1
    55   30   31 1
    56   30   53 1
@<TRIPOS>MOLECULE
CHEMBL608393
   35    37     0     0     0
SMALL
USER_CHARGES

@<TRIPOS>ATOM
      1 C1         -1.6303    2.6290    2.1717 C.3       1 <0>         0.0692
      2 N1         -2.3254    1.5003    2.7956 N.pl3     1 <0>        -0.4474
      3 C2         -3.6741    1.4120    3.0558 C.2       1 <0>        -0.0451
      4 C3         -3.8850    0.2157    3.6312 C.2       1 <0>        -0.0195
      5 N2         -2.7061   -0.4212    3.7267 N.2       1 <0>        -0.4810
      6 C4         -1.7608    0.3375    3.2227 C.2       1 <0>         0.1672
      7 S1         -0.0512   -0.0767    3.1207 S.3       1 <0>         0.1015
      8 C5          0.0642   -1.6206    3.9621 C.ar      1 <0>        -0.2365
      9 C6          0.2039   -2.7910    3.2392 C.ar      1 <0>         0.0599
     10 C7          0.2955   -4.0156    3.9078 C.ar      1 <0>        -0.2493
     11 C8          0.2447   -4.0476    5.3105 C.ar      1 <0>         0.3427
     12 C9          0.1041   -2.8648    6.0233 C.ar      1 <0>        -0.2537
     13 C10         0.0201   -1.6582    5.3553 C.ar      1 <0>         0.2448
     14 F1         -0.1111   -0.5100    6.0550 F         1 <0>        -0.1141
     15 N3          0.3345   -5.2614    5.9841 N.pl3     1 <0>        -0.8358
     16 C11         0.4440   -5.2660    3.1441 C.2       1 <0>         0.5787
     17 O1          0.4125   -6.3372    3.7193 O.2       1 <0>        -0.4820
     18 N4          0.6147   -5.2234    1.8079 N.am      1 <0>        -0.6176
     19 C12         0.7547   -6.4028    1.0877 C.2       1 <0>         0.2701
     20 N5          0.7406   -7.6402    1.5345 N.2       1 <0>        -0.5204
     21 C13         0.8880   -8.6636    0.7136 C.2       1 <0>         0.0619
     22 C14         1.0532   -8.3797   -0.6017 C.2       1 <0>        -0.2425
     23 S2          0.9763   -6.5962   -0.5694 S.3       1 <0>         0.1135
     24 H1         -1.6139    2.4928    1.0904 H         1 <0>         0.0813
     25 H2         -2.1515    3.5552    2.4135 H         1 <0>         0.0911
     26 H3         -0.6082    2.6786    2.5472 H         1 <0>         0.0898
     27 H4         -4.4209    2.1614    2.8388 H         1 <0>         0.1791
     28 H5         -4.8392   -0.1678    3.9608 H         1 <0>         0.1724
     29 H6          0.2420   -2.7593    2.1603 H         1 <0>         0.1423
     30 H7          0.0645   -2.8873    7.1024 H         1 <0>         0.1500
     31 H8          0.3460   -6.0932    5.4853 H         1 <0>         0.4230
     32 H9          0.3856   -5.2760    6.9527 H         1 <0>         0.4023
     33 H10         0.6398   -4.3691    1.3492 H         1 <0>         0.4263
     34 H11         0.8777   -9.6817    1.0739 H         1 <0>         0.1771
     35 H12         1.1899   -9.0483   -1.4388 H         1 <0>         0.2004
@<TRIPOS>BOND
     1    1    2 1
     2    1   24 1
     3    1   25 1
     4    1   26 1
     5    2    6 1
     6    2    3 1
     7    3    4 2
     8    3   27 1
     9    4    5 1
    10    4   28 1
    11    5    6 2
    12    6    7 1
    13    7    8 1
    14    8   13 ar
    15    8    9 ar
    16    9   10 ar
    17    9   29 1
    18   10   11 ar
    19   10   16 1
    20   11   12 ar
    21   11   15 1
    22   12   13 ar
    23   12   30 1
    24   13   14 1
    25   15   31 1
    26   15   32 1
    27   16   17 2
    28   16   18 am
    29   18   19 1
    30   18   33 1
    31   19   23 1
    32   19   20 2
    33   20   21 1
    34   21   22 2
    35   21   34 1
    36   22   23 1
    37   22   35 1
@<TRIPOS>MOLECULE
CHEMBL551558
   39    42     0     0     0
SMALL
USER_CHARGES

@<TRIPOS>ATOM
      1 C1          0.0825    1.3805    0.8363 C.ar      1 <0>        -0.0584
      2 C2          0.3103    0.8617   -0.4252 C.ar      1 <0>        -0.1392
      3 C3          1.4861    0.1894   -0.6962 C.ar      1 <0>        -0.0335
      4 C4          2.4416    0.0345    0.3000 C.ar      1 <0>        -0.2366
      5 C5          2.2102    0.5578    1.5682 C.ar      1 <0>         0.1461
      6 C6          1.0305    1.2290    1.8318 C.ar      1 <0>        -0.1632
      7 F1          3.1364    0.4098    2.5406 F         1 <0>        -0.1228
      8 S1          3.9425   -0.8229   -0.0415 S.3       1 <0>         0.1542
      9 C7          5.1406    0.4598   -0.1960 C.ar      1 <0>        -0.0992
     10 C8          4.7513    1.8018   -0.1598 C.ar      1 <0>        -0.0769
     11 C9          5.7136    2.7677   -0.2834 C.ar      1 <0>        -0.0863
     12 C10         7.0498    2.3932   -0.4415 C.ar      1 <0>         0.0770
     13 N1          7.3992    1.1217   -0.4735 N.ar      1 <0>        -0.3855
     14 C11         6.4973    0.1499   -0.3512 C.ar      1 <0>         0.0909
     15 C12         6.9288   -1.2608   -0.3852 C.2       1 <0>         0.5701
     16 O1          6.1071   -2.1508   -0.2786 O.2       1 <0>        -0.4393
     17 N2          8.2338   -1.5629   -0.5344 N.am      1 <0>        -0.6014
     18 C13         8.6400   -2.8905   -0.5664 C.2       1 <0>         0.2730
     19 N3          7.8999   -3.9744   -0.4730 N.2       1 <0>        -0.5220
     20 C14         8.4423   -5.1770   -0.5219 C.2       1 <0>         0.0644
     21 C15         9.7882   -5.2404   -0.6719 C.2       1 <0>        -0.2454
     22 S2         10.1974   -3.5038   -0.7415 S.3       1 <0>         0.1092
     23 S3          8.2870    3.6376   -0.6011 S.3       1 <0>         0.1861
     24 C16         9.7863    2.7284   -0.7744 C.2       1 <0>         0.2416
     25 N4          9.9018    1.4173   -0.7778 N.2       1 <0>        -0.5010
     26 H1         11.2522    4.1940   -0.9728 H         1 <0>         0.4456
     27 C17        11.1824    1.0793   -0.9298 C.2       1 <0>         0.2004
     28 N5         11.9032    2.1643   -1.0255 N.2       1 <0>        -0.2953
     29 N6         11.0208    3.2528   -0.9331 N.pl3     1 <0>        -0.4591
     30 H2         -0.8362    1.9092    1.0434 H         1 <0>         0.1399
     31 H3         -0.4326    0.9821   -1.1998 H         1 <0>         0.1383
     32 H4          1.6622   -0.2158   -1.6817 H         1 <0>         0.1436
     33 H5          0.8494    1.6358    2.8158 H         1 <0>         0.1427
     34 H6          3.7127    2.0711   -0.0371 H         1 <0>         0.1480
     35 H7          5.4412    3.8125   -0.2592 H         1 <0>         0.1534
     36 H8          8.8893   -0.8530   -0.6194 H         1 <0>         0.4428
     37 H9          7.8406   -6.0706   -0.4455 H         1 <0>         0.1770
     38 H10        10.4343   -6.1034   -0.7354 H         1 <0>         0.1999
     39 H11        11.5632    0.0693   -0.9672 H         1 <0>         0.2206
@<TRIPOS>BOND
     1    1    6 ar
     2    1    2 ar
     3    1   30 1
     4    2    3 ar
     5    2   31 1
     6    3    4 ar
     7    3   32 1
     8    4    5 ar
     9    4    8 1
    10    5    6 ar
    11    5    7 1
    12    6   33 1
    13    8    9 1
    14    9   14 ar
    15    9   10 ar
    16   10   11 ar
    17   10   34 1
    18   11   12 ar
    19   11   35 1
    20   12   13 ar
    21   12   23 1
    22   13   14 ar
    23   14   15 1
    24   15   16 2
    25   15   17 am
    26   17   18 1
    27   17   36 1
    28   18   22 1
    29   18   19 2
    30   19   20 1
    31   20   21 2
    32   20   37 1
    33   21   22 1
    34   21   38 1
    35   23   24 1
    36   24   25 2
    37   24   29 1
    38   25   27 1
    39   26   29 1
    40   27   39 1
    41   27   28 2
    42   28   29 1
@<TRIPOS>MOLECULE
CHEMBL551558__1
   39    42     0     0     0
SMALL
USER_CHARGES

@<TRIPOS>ATOM
      1 C1          0.0825    1.3805    0.8363 C.ar      1 <0>        -0.0584
      2 C2          0.3103    0.8617   -0.4252 C.ar      1 <0>        -0.1391
      3 C3          1.4861    0.1895   -0.6963 C.ar      1 <0>        -0.0337
      4 C4          2.4416    0.0345    0.2998 C.ar      1 <0>        -0.2348
      5 C5          2.2103    0.5577    1.5681 C.ar      1 <0>         0.1460
      6 C6          1.0306    1.2290    1.8318 C.ar      1 <0>        -0.1629
      7 F1          3.1365    0.4097    2.5404 F         1 <0>        -0.1230
      8 S1          3.9425   -0.8229   -0.0417 S.3       1 <0>         0.1486
      9 C7          5.1406    0.4598   -0.1962 C.ar      1 <0>        -0.1023
     10 C8          4.7512    1.8018   -0.1599 C.ar      1 <0>        -0.0744
     11 C9          5.7133    2.7678   -0.2835 C.ar      1 <0>        -0.0877
     12 C10         7.0498    2.3934   -0.4416 C.ar      1 <0>         0.0715
     13 N1          7.3993    1.1217   -0.4737 N.ar      1 <0>        -0.4073
     14 C11         6.4971    0.1498   -0.3514 C.ar      1 <0>         0.0904
     15 C12         6.9285   -1.2608   -0.3860 C.2       1 <0>         0.5696
     16 O1          6.1066   -2.1507   -0.2798 O.2       1 <0>        -0.4369
     17 N2          8.2335   -1.5630   -0.5352 N.am      1 <0>        -0.6040
     18 C13         8.6395   -2.8907   -0.5678 C.2       1 <0>         0.2740
     19 N3          7.8993   -3.9745   -0.4749 N.2       1 <0>        -0.5199
     20 C14         8.4416   -5.1771   -0.5238 C.2       1 <0>         0.0657
     21 C15         9.7875   -5.2405   -0.6733 C.2       1 <0>        -0.2425
     22 S2         10.1969   -3.5041   -0.7431 S.3       1 <0>         0.0992
     23 S3          8.2869    3.6379   -0.6012 S.3       1 <0>         0.2161
     24 C16         9.7863    2.7287   -0.7746 C.2       1 <0>         0.1855
     25 N4         11.0045    3.2579   -0.9259 N.2       1 <0>        -0.5171
     26 H1         11.6551    0.2415   -0.9798 H         1 <0>         0.4429
     27 C17        11.8930    2.3025   -1.0253 C.2       1 <0>         0.2774
     28 N5         11.2540    1.1237   -0.9384 N.pl3     1 <0>        -0.4868
     29 N6          9.8916    1.4206   -0.7707 N.2       1 <0>        -0.2711
     30 H2         -0.8362    1.9091    1.0435 H         1 <0>         0.1401
     31 H3         -0.4326    0.9822   -1.1998 H         1 <0>         0.1384
     32 H4          1.6621   -0.2157   -1.6818 H         1 <0>         0.1433
     33 H5          0.8494    1.6354    2.8158 H         1 <0>         0.1428
     34 H6          3.7126    2.0711   -0.0371 H         1 <0>         0.1477
     35 H7          5.4408    3.8126   -0.2592 H         1 <0>         0.1549
     36 H8          8.8891   -0.8531   -0.6199 H         1 <0>         0.4389
     37 H9          7.8398   -6.0707   -0.4478 H         1 <0>         0.1784
     38 H10        10.4336   -6.1036   -0.7368 H         1 <0>         0.2009
     39 H11        12.9566    2.4379   -1.1550 H         1 <0>         0.2294
@<TRIPOS>BOND
     1    1    6 ar
     2    1    2 ar
     3    1   30 1
     4    2    3 ar
     5    2   31 1
     6    3    4 ar
     7    3   32 1
     8    4    5 ar
     9    4    8 1
    10    5    6 ar
    11    5    7 1
    12    6   33 1
    13    8    9 1
    14    9   14 ar
    15    9   10 ar
    16   10   11 ar
    17   10   34 1
    18   11   12 ar
    19   11   35 1
    20   12   13 ar
    21   12   23 1
    22   13   14 ar
    23   14   15 1
    24   15   16 2
    25   15   17 am
    26   17   18 1
    27   17   36 1
    28   18   22 1
    29   18   19 2
    30   19   20 1
    31   20   21 2
    32   20   37 1
    33   21   22 1
    34   21   38 1
    35   23   24 1
    36   24   25 1
    37   24   29 2
    38   25   27 2
    39   26   28 1
    40   27   39 1
    41   27   28 1
    42   28   29 1
@<TRIPOS>MOLECULE
CHEMBL596032
   59    63     0     0     0
SMALL
USER_CHARGES

@<TRIPOS>ATOM
      1 C1          2.6839    1.3827    1.0798 C.3       1 <0>        -0.1511
      2 C2          2.5374   -0.1388    1.0135 C.3       1 <0>        -0.6081
      3 S1          0.8264   -0.5990    1.4024 S.o2      1 <0>         2.4952
      4 O1          0.5411   -0.3159    2.7654 O.2       1 <0>        -0.9321
      5 O2         -0.0461   -0.1551    0.3724 O.2       1 <0>        -0.9329
      6 C3          0.7941   -2.3573    1.2921 C.ar      1 <0>        -0.6677
      7 C4          0.5022   -2.9679    0.0864 C.ar      1 <0>        -0.0074
      8 C5          0.4767   -4.3461   -0.0029 C.ar      1 <0>        -0.1595
      9 C6          0.7445   -5.1179    1.1188 C.ar      1 <0>         0.1553
     10 C7          1.0372   -4.5026    2.3276 C.ar      1 <0>        -0.1408
     11 C8          1.0665   -3.1240    2.4101 C.ar      1 <0>        -0.0050
     12 O3          0.7196   -6.4738    1.0337 O.3       1 <0>        -0.2301
     13 C9          1.6820   -7.0844    0.2934 C.ar      1 <0>         0.1617
     14 C10         2.7193   -6.3378   -0.2374 C.ar      1 <0>        -0.2028
     15 C11         3.7001   -6.9644   -0.9927 C.ar      1 <0>         0.1027
     16 C12         3.6342   -8.3525   -1.2142 C.ar      1 <0>         0.0222
     17 C13         2.5763   -9.0881   -0.6686 C.ar      1 <0>         0.0121
     18 C14         1.6220   -8.4590    0.0776 C.ar      1 <0>        -0.1433
     19 C15         0.4889   -9.2583    0.6677 C.3       1 <0>         0.1733
     20 N1         -0.7030   -9.1086   -0.1708 N.am      1 <0>        -0.5738
     21 C16        -1.6277   -8.1420   -0.0065 C.2       1 <0>         0.5157
     22 O4         -1.6300   -7.2657    0.8312 O.2       1 <0>        -0.4441
     23 C17        -2.6636   -8.3780   -1.0876 C.3       1 <0>         0.0609
     24 N2         -2.1546   -9.5611   -1.8026 N.am      1 <0>        -0.6307
     25 C18        -1.0050   -9.9110   -1.1978 C.2       1 <0>         0.6984
     26 O5         -0.3192  -10.8529   -1.5437 O.2       1 <0>        -0.5382
     27 C19        -2.7767  -10.2245   -2.9511 C.3       1 <0>         0.1199
     28 N3          4.7055   -8.6877   -1.9728 N.2       1 <0>        -0.4558
     29 C20         5.4154   -7.6176   -2.2296 C.2       1 <0>         0.3265
     30 N4          4.8341   -6.5238   -1.6444 N.pl3     1 <0>        -0.5776
     31 C21         6.6588   -7.5936   -3.0315 C.ar      1 <0>         0.1793
     32 C22         7.1495   -8.7770   -3.5825 C.ar      1 <0>        -0.1177
     33 C23         8.3138   -8.7383   -4.3302 C.ar      1 <0>        -0.0728
     34 C24         8.9500   -7.5172   -4.5027 C.ar      1 <0>        -0.1568
     35 C25         8.4075   -6.3818   -3.9275 C.ar      1 <0>         0.1064
     36 N5          7.2955   -6.4447   -3.2251 N.ar      1 <0>        -0.4802
     37 H1          2.4337    1.7285    2.0828 H         1 <0>         0.0756
     38 H2          3.7120    1.6593    0.8461 H         1 <0>         0.0858
     39 H3          2.0104    1.8444    0.3578 H         1 <0>         0.0751
     40 H4          2.7876   -0.4845    0.0105 H         1 <0>         0.1346
     41 H5          3.2109   -0.6005    1.7355 H         1 <0>         0.1356
     42 H6          0.2935   -2.3667   -0.7862 H         1 <0>         0.1486
     43 H7          0.2483   -4.8226   -0.9448 H         1 <0>         0.1372
     44 H8          1.2460   -5.1010    3.2020 H         1 <0>         0.1455
     45 H9          1.2986   -2.6446    3.3496 H         1 <0>         0.1519
     46 H10         2.7651   -5.2727   -0.0648 H         1 <0>         0.1340
     47 H11         2.5177  -10.1538   -0.8334 H         1 <0>         0.1503
     48 H12         0.7714  -10.3101    0.7132 H         1 <0>         0.1096
     49 H13         0.2738   -8.8961    1.6730 H         1 <0>         0.1101
     50 H14        -3.6381   -8.5866   -0.6460 H         1 <0>         0.1223
     51 H15        -2.7209   -7.5202   -1.7577 H         1 <0>         0.1192
     52 H16        -2.4058   -9.7778   -3.8736 H         1 <0>         0.0619
     53 H17        -2.5286  -11.2858   -2.9360 H         1 <0>         0.0836
     54 H18        -3.8587  -10.1036   -2.8984 H         1 <0>         0.0805
     55 H19         6.6287   -9.7104   -3.4278 H         1 <0>         0.1523
     56 H20         8.7182   -9.6384   -4.7691 H         1 <0>         0.1456
     57 H21         9.8603   -7.4538   -5.0803 H         1 <0>         0.1431
     58 H22         8.9005   -5.4301   -4.0602 H         1 <0>         0.1648
     59 H23         5.1587   -5.6105   -1.6814 H         1 <0>         0.4315
@<TRIPOS>BOND
     1    1    2 1
     2    1   37 1
     3    1   38 1
     4    1   39 1
     5    2    3 1
     6    2   40 1
     7    2   41 1
     8    3    4 2
     9    3    5 2
    10    3    6 1
    11    6   11 ar
    12    6    7 ar
    13    7    8 ar
    14    7   42 1
    15    8    9 ar
    16    8   43 1
    17    9   10 ar
    18    9   12 1
    19   10   11 ar
    20   10   44 1
    21   11   45 1
    22   12   13 1
    23   13   18 ar
    24   13   14 ar
    25   14   15 ar
    26   14   46 1
    27   15   30 1
    28   15   16 ar
    29   16   17 ar
    30   16   28 1
    31   17   18 ar
    32   17   47 1
    33   18   19 1
    34   19   20 1
    35   19   48 1
    36   19   49 1
    37   20   25 am
    38   20   21 am
    39   21   22 2
    40   21   23 1
    41   23   24 1
    42   23   50 1
    43   23   51 1
    44   24   25 am
    45   24   27 1
    46   25   26 2
    47   27   52 1
    48   27   53 1
    49   27   54 1
    50   28   29 2
    51   29   30 1
    52   29   31 1
    53   30   59 1
    54   31   36 ar
    55   31   32 ar
    56   32   33 ar
    57   32   55 1
    58   33   34 ar
    59   33   56 1
    60   34   35 ar
    61   34   57 1
    62   35   36 ar
    63   35   58 1
@<TRIPOS>MOLECULE
CHEMBL596032__1
   59    63     0     0     0
SMALL
USER_CHARGES

@<TRIPOS>ATOM
      1 C1         -1.2467    1.4106   -1.7846 C.3       1 <0>        -0.1509
      2 C2         -1.1608   -0.1131   -1.6747 C.3       1 <0>        -0.6074
      3 S1         -1.6132   -0.6244    0.0059 S.o2      1 <0>         2.4953
      4 O1         -0.6283   -0.1875    0.9323 O.2       1 <0>        -0.9338
      5 O2         -2.9916   -0.3705    0.2405 O.2       1 <0>        -0.9335
      6 C3         -1.4747   -2.3810   -0.0025 C.ar      1 <0>        -0.6681
      7 C4         -2.5656   -3.1576   -0.3470 C.ar      1 <0>        -0.0049
      8 C5         -2.4597   -4.5349   -0.3544 C.ar      1 <0>        -0.1414
      9 C6         -1.2573   -5.1389   -0.0158 C.ar      1 <0>         0.1565
     10 C7         -0.1641   -4.3572    0.3296 C.ar      1 <0>        -0.1587
     11 C8         -0.2737   -2.9801    0.3299 C.ar      1 <0>        -0.0058
     12 O3         -1.1506   -6.4935   -0.0218 O.3       1 <0>        -0.2348
     13 C9         -0.9811   -7.1257    1.1697 C.ar      1 <0>         0.1304
     14 C10        -1.0514   -6.4047    2.3448 C.ar      1 <0>        -0.1514
     15 C11        -0.8768   -7.0566    3.5701 C.ar      1 <0>         0.0995
     16 C12        -0.6313   -8.4416    3.5887 C.ar      1 <0>         0.0268
     17 C13        -0.5643   -9.1508    2.3975 C.ar      1 <0>        -0.0395
     18 C14        -0.7434   -8.4975    1.1974 C.ar      1 <0>        -0.1169
     19 C15        -0.6756   -9.2717   -0.0938 C.3       1 <0>         0.1732
     20 N1          0.6441   -9.0902   -0.7034 N.am      1 <0>        -0.5735
     21 C16         0.9494   -8.1024   -1.5678 C.2       1 <0>         0.5160
     22 O4          0.2118   -7.2294   -1.9723 O.2       1 <0>        -0.4424
     23 C17         2.4072   -8.3093   -1.9282 C.3       1 <0>         0.0611
     24 N2          2.7899   -9.5015   -1.1523 N.am      1 <0>        -0.6305
     25 C18         1.6968   -9.8813   -0.4662 C.2       1 <0>         0.6992
     26 O5          1.6677  -10.8380    0.2827 O.2       1 <0>        -0.5413
     27 C19         4.1056  -10.1455   -1.1288 C.3       1 <0>         0.1198
     28 N3         -0.5049   -8.7919    4.9194 N.pl3     1 <0>        -0.5728
     29 H1         -0.3306   -9.6806    5.2667 H         1 <0>         0.4331
     30 C20        -0.6707   -7.6503    5.6556 C.2       1 <0>         0.3454
     31 N4         -0.8887   -6.6350    4.8572 N.2       1 <0>        -0.4751
     32 C21        -0.6132   -7.5744    7.1325 C.ar      1 <0>         0.1749
     33 C22        -0.8044   -6.3491    7.7700 C.ar      1 <0>        -0.1154
     34 C23        -0.7481   -6.2943    9.1521 C.ar      1 <0>        -0.0736
     35 C24        -0.5023   -7.4669    9.8520 C.ar      1 <0>        -0.1547
     36 C25        -0.3218   -8.6485    9.1549 C.ar      1 <0>         0.1065
     37 N5         -0.3853   -8.6745    7.8401 N.ar      1 <0>        -0.4776
     38 H2         -0.9748    1.7178   -2.7945 H         1 <0>         0.0858
     39 H3         -2.2649    1.7337   -1.5682 H         1 <0>         0.0750
     40 H4         -0.5613    1.8656   -1.0695 H         1 <0>         0.0747
     41 H5         -1.8461   -0.5681   -2.3898 H         1 <0>         0.1362
     42 H6         -0.1426   -0.4362   -1.8911 H         1 <0>         0.1357
     43 H7         -3.5014   -2.6870   -0.6101 H         1 <0>         0.1509
     44 H8         -3.3122   -5.1411   -0.6232 H         1 <0>         0.1445
     45 H9          0.7730   -4.8248    0.5935 H         1 <0>         0.1365
     46 H10         0.5782   -2.3711    0.5940 H         1 <0>         0.1484
     47 H11        -1.2400   -5.3416    2.3182 H         1 <0>         0.1405
     48 H12        -0.3755  -10.2141    2.4113 H         1 <0>         0.1432
     49 H13        -0.8401  -10.3301    0.1081 H         1 <0>         0.1079
     50 H14        -1.4440   -8.9083   -0.7761 H         1 <0>         0.1116
     51 H15         2.5152   -8.4961   -2.9967 H         1 <0>         0.1223
     52 H16         3.0028   -7.4478   -1.6264 H         1 <0>         0.1196
     53 H17         4.7120   -9.7042   -0.3378 H         1 <0>         0.0621
     54 H18         3.9846  -11.2124   -0.9416 H         1 <0>         0.0832
     55 H19         4.5990   -9.9988   -2.0896 H         1 <0>         0.0809
     56 H20        -0.9934   -5.4555    7.1938 H         1 <0>         0.1524
     57 H21        -0.8919   -5.3597    9.6739 H         1 <0>         0.1460
     58 H22        -0.4520   -7.4574   10.9308 H         1 <0>         0.1437
     59 H23        -0.1300   -9.5627    9.6970 H         1 <0>         0.1657
@<TRIPOS>BOND
     1    1    2 1
     2    1   38 1
     3    1   39 1
     4    1   40 1
     5    2    3 1
     6    2   41 1
     7    2   42 1
     8    3    4 2
     9    3    5 2
    10    3    6 1
    11    6   11 ar
    12    6    7 ar
    13    7    8 ar
    14    7   43 1
    15    8    9 ar
    16    8   44 1
    17    9   10 ar
    18    9   12 1
    19   10   11 ar
    20   10   45 1
    21   11   46 1
    22   12   13 1
    23   13   18 ar
    24   13   14 ar
    25   14   15 ar
    26   14   47 1
    27   15   31 1
    28   15   16 ar
    29   16   17 ar
    30   16   28 1
    31   17   18 ar
    32   17   48 1
    33   18   19 1
    34   19   20 1
    35   19   49 1
    36   19   50 1
    37   20   25 am
    38   20   21 am
    39   21   22 2
    40   21   23 1
    41   23   24 1
    42   23   51 1
    43   23   52 1
    44   24   25 am
    45   24   27 1
    46   25   26 2
    47   27   53 1
    48   27   54 1
    49   27   55 1
    50   28   29 1
    51   28   30 1
    52   30   31 2
    53   30   32 1
    54   32   37 ar
    55   32   33 ar
    56   33   34 ar
    57   33   56 1
    58   34   35 ar
    59   34   57 1
    60   35   36 ar
    61   35   58 1
    62   36   37 ar
    63   36   59 1
@<TRIPOS>MOLECULE
CHEMBL596026
   55    59     0     0     0
SMALL
USER_CHARGES

@<TRIPOS>ATOM
      1 C1         -0.4396    1.3620   -2.8644 C.3       1 <0>        -0.1512
      2 C2         -0.3856   -0.1580   -2.6990 C.3       1 <0>        -0.6078
      3 S1          0.8176   -0.5837   -1.4099 S.o2      1 <0>         2.4950
      4 O1          2.1332   -0.2690   -1.8452 O.2       1 <0>        -0.9317
      5 O2          0.3505   -0.1469   -0.1410 O.2       1 <0>        -0.9324
      6 C3          0.7823   -2.3431   -1.3207 C.ar      1 <0>        -0.6668
      7 C4         -0.1005   -2.9730   -0.4630 C.ar      1 <0>        -0.0071
      8 C5         -0.1305   -4.3522   -0.3915 C.ar      1 <0>        -0.1599
      9 C6          0.7264   -5.1055   -1.1814 C.ar      1 <0>         0.1530
     10 C7          1.6113   -4.4708   -2.0413 C.ar      1 <0>        -0.1401
     11 C8          1.6336   -3.0914   -2.1127 C.ar      1 <0>        -0.0048
     12 O3          0.6992   -6.4623   -1.1126 O.3       1 <0>        -0.2326
     13 C9         -0.4074   -7.1024   -1.5737 C.ar      1 <0>         0.1608
     14 C10        -1.4041   -6.3829   -2.2094 C.ar      1 <0>        -0.2005
     15 C11        -2.5324   -7.0396   -2.6789 C.ar      1 <0>         0.1040
     16 C12        -2.6564   -8.4307   -2.5063 C.ar      1 <0>         0.0229
     17 C13        -1.6369   -9.1387   -1.8604 C.ar      1 <0>         0.0124
     18 C14        -0.5298   -8.4800   -1.4091 C.ar      1 <0>        -0.1488
     19 C15         0.5675   -9.2496   -0.7201 C.3       1 <0>         0.1754
     20 N1          0.4333   -9.0981    0.7309 N.am      1 <0>        -0.5817
     21 C16         1.0101   -8.1175    1.4553 C.2       1 <0>         0.4931
     22 O4          1.7157   -7.2208    1.0458 O.2       1 <0>        -0.4262
     23 C17         0.5901   -8.3720    2.8887 C.3       1 <0>         0.0082
     24 O5         -0.2318   -9.5464    2.8083 O.3       1 <0>        -0.3013
     25 C18        -0.2833   -9.9112    1.5176 C.2       1 <0>         0.6476
     26 O6         -0.9060  -10.8710    1.1101 O.2       1 <0>        -0.4680
     27 N2         -3.8402   -8.7976   -3.0537 N.2       1 <0>        -0.4559
     28 C19        -4.4442   -7.7441   -3.5439 C.2       1 <0>         0.3296
     29 N3         -3.6745   -6.6299   -3.3368 N.pl3     1 <0>        -0.5773
     30 C20        -5.7604   -7.7555   -4.2199 C.ar      1 <0>         0.1778
     31 C21        -6.4530   -8.9572   -4.3652 C.ar      1 <0>        -0.1170
     32 C22        -7.6831   -8.9516   -4.9999 C.ar      1 <0>        -0.0728
     33 C23        -8.1811   -7.7442   -5.4688 C.ar      1 <0>        -0.1559
     34 C24        -7.4405   -6.5892   -5.2905 C.ar      1 <0>         0.1066
     35 N4         -6.2751   -6.6208   -4.6785 N.ar      1 <0>        -0.4800
     36 H1         -0.7398    1.8196   -1.9218 H         1 <0>         0.0753
     37 H2          0.5452    1.7316   -3.1502 H         1 <0>         0.0756
     38 H3         -1.1625    1.6178   -3.6390 H         1 <0>         0.0861
     39 H4         -1.3704   -0.5276   -2.4132 H         1 <0>         0.1347
     40 H5         -0.0853   -0.6156   -3.6416 H         1 <0>         0.1356
     41 H6         -0.7669   -2.3863    0.1518 H         1 <0>         0.1493
     42 H7         -0.8200   -4.8438    0.2788 H         1 <0>         0.1375
     43 H8          2.2792   -5.0547   -2.6571 H         1 <0>         0.1458
     44 H9          2.3191   -2.5970   -2.7851 H         1 <0>         0.1523
     45 H10        -1.3042   -5.3153   -2.3391 H         1 <0>         0.1350
     46 H11        -1.7236  -10.2065   -1.7235 H         1 <0>         0.1515
     47 H12         0.4921  -10.3046   -0.9838 H         1 <0>         0.1140
     48 H13         1.5363   -8.8641   -1.0376 H         1 <0>         0.1147
     49 H14         1.4625   -8.5586    3.5149 H         1 <0>         0.1451
     50 H15         0.0157   -7.5295    3.2737 H         1 <0>         0.1418
     51 H16        -6.0354   -9.8791   -3.9883 H         1 <0>         0.1525
     52 H17        -8.2427   -9.8664   -5.1275 H         1 <0>         0.1459
     53 H18        -9.1377   -7.7065   -5.9686 H         1 <0>         0.1434
     54 H19        -7.8256   -5.6482   -5.6545 H         1 <0>         0.1650
     55 H20        -3.8916   -5.7227   -3.6026 H         1 <0>         0.4321
@<TRIPOS>BOND
     1    1    2 1
     2    1   36 1
     3    1   37 1
     4    1   38 1
     5    2    3 1
     6    2   39 1
     7    2   40 1
     8    3    4 2
     9    3    5 2
    10    3    6 1
    11    6   11 ar
    12    6    7 ar
    13    7    8 ar
    14    7   41 1
    15    8    9 ar
    16    8   42 1
    17    9   10 ar
    18    9   12 1
    19   10   11 ar
    20   10   43 1
    21   11   44 1
    22   12   13 1
    23   13   18 ar
    24   13   14 ar
    25   14   15 ar
    26   14   45 1
    27   15   29 1
    28   15   16 ar
    29   16   17 ar
    30   16   27 1
    31   17   18 ar
    32   17   46 1
    33   18   19 1
    34   19   20 1
    35   19   47 1
    36   19   48 1
    37   20   25 am
    38   20   21 am
    39   21   22 2
    40   21   23 1
    41   23   24 1
    42   23   49 1
    43   23   50 1
    44   24   25 1
    45   25   26 2
    46   27   28 2
    47   28   29 1
    48   28   30 1
    49   29   55 1
    50   30   35 ar
    51   30   31 ar
    52   31   32 ar
    53   31   51 1
    54   32   33 ar
    55   32   52 1
    56   33   34 ar
    57   33   53 1
    58   34   35 ar
    59   34   54 1
@<TRIPOS>MOLECULE
CHEMBL596026__1
   55    59     0     0     0
SMALL
USER_CHARGES

@<TRIPOS>ATOM
      1 C1         -0.4391    1.3629   -2.8625 C.3       1 <0>        -0.1509
      2 C2         -0.3852   -0.1572   -2.6980 C.3       1 <0>        -0.6076
      3 S1          0.8176   -0.5836   -1.4088 S.o2      1 <0>         2.4950
      4 O1          2.1333   -0.2687   -1.8435 O.2       1 <0>        -0.9331
      5 O2          0.3501   -0.1475   -0.1397 O.2       1 <0>        -0.9335
      6 C3          0.7823   -2.3431   -1.3206 C.ar      1 <0>        -0.6666
      7 C4         -0.1008   -2.9735   -0.4634 C.ar      1 <0>        -0.0057
      8 C5         -0.1305   -4.3527   -0.3924 C.ar      1 <0>        -0.1588
      9 C6          0.7268   -5.1056   -1.1821 C.ar      1 <0>         0.1540
     10 C7          1.6120   -4.4704   -2.0414 C.ar      1 <0>        -0.1405
     11 C8          1.6337   -3.0910   -2.1128 C.ar      1 <0>        -0.0048
     12 O3          0.6998   -6.4624   -1.1138 O.3       1 <0>        -0.2365
     13 C9         -0.4070   -7.1029   -1.5754 C.ar      1 <0>         0.1318
     14 C10        -1.4007   -6.3844   -2.2093 C.ar      1 <0>        -0.1514
     15 C11        -2.5390   -7.0447   -2.6838 C.ar      1 <0>         0.1015
     16 C12        -2.6562   -8.4355   -2.5083 C.ar      1 <0>         0.0259
     17 C13        -1.6470   -9.1421   -1.8689 C.ar      1 <0>        -0.0380
     18 C14        -0.5283   -8.4803   -1.4108 C.ar      1 <0>        -0.1229
     19 C15         0.5681   -9.2514   -0.7221 C.3       1 <0>         0.1749
     20 N1          0.4336   -9.1010    0.7289 N.am      1 <0>        -0.5816
     21 C16         1.0110   -8.1214    1.4544 C.2       1 <0>         0.4927
     22 O4          1.7175   -7.2250    1.0457 O.2       1 <0>        -0.4229
     23 C17         0.5903   -8.3767    2.8874 C.3       1 <0>         0.0083
     24 O5         -0.2325   -9.5503    2.8058 O.3       1 <0>        -0.3011
     25 C18        -0.2839   -9.9140    1.5148 C.2       1 <0>         0.6487
     26 O6         -0.9073  -10.8731    1.1063 O.2       1 <0>        -0.4722
     27 N2         -3.8664   -8.7935   -3.0711 N.pl3     1 <0>        -0.5721
     28 H1         -4.2405   -9.6876   -3.1116 H         1 <0>         0.4340
     29 C19        -4.4389   -7.6508   -3.5599 C.2       1 <0>         0.3483
     30 N3         -3.6543   -6.6274   -3.3292 N.2       1 <0>        -0.4768
     31 C20        -5.7479   -7.5815   -4.2469 C.ar      1 <0>         0.1737
     32 C21        -6.2235   -6.3540   -4.7067 C.ar      1 <0>        -0.1155
     33 C22        -7.4495   -6.3055   -5.3479 C.ar      1 <0>        -0.0739
     34 C23        -8.1602   -7.4863   -5.5084 C.ar      1 <0>        -0.1537
     35 C24        -7.6282   -8.6696   -5.0273 C.ar      1 <0>         0.1074
     36 N4         -6.4574   -8.6893   -4.4254 N.ar      1 <0>        -0.4771
     37 H2         -0.7396    1.8200   -1.9197 H         1 <0>         0.0749
     38 H3          0.5458    1.7326   -3.1479 H         1 <0>         0.0750
     39 H4         -1.1618    1.6191   -3.6372 H         1 <0>         0.0859
     40 H5         -1.3701   -0.5269   -2.4126 H         1 <0>         0.1360
     41 H6         -0.0847   -0.6143   -3.6408 H         1 <0>         0.1362
     42 H7         -0.7676   -2.3871    0.1513 H         1 <0>         0.1491
     43 H8         -0.8202   -4.8446    0.2775 H         1 <0>         0.1370
     44 H9          2.2803   -5.0540   -2.6572 H         1 <0>         0.1448
     45 H10         2.3192   -2.5963   -2.7849 H         1 <0>         0.1517
     46 H11        -1.3000   -5.3168   -2.3381 H         1 <0>         0.1411
     47 H12        -1.7368  -10.2098   -1.7336 H         1 <0>         0.1444
     48 H13         0.4919  -10.3061   -0.9867 H         1 <0>         0.1124
     49 H14         1.5373   -8.8664   -1.0391 H         1 <0>         0.1164
     50 H15         1.4625   -8.5646    3.5137 H         1 <0>         0.1455
     51 H16         0.0165   -7.5340    3.2729 H         1 <0>         0.1427
     52 H17        -5.6439   -5.4539   -4.5644 H         1 <0>         0.1517
     53 H18        -7.8441   -5.3694   -5.7146 H         1 <0>         0.1459
     54 H19        -9.1197   -7.4818   -6.0040 H         1 <0>         0.1441
     55 H20        -8.1793   -9.5902   -5.1505 H         1 <0>         0.1663
@<TRIPOS>BOND
     1    1    2 1
     2    1   37 1
     3    1   38 1
     4    1   39 1
     5    2    3 1
     6    2   40 1
     7    2   41 1
     8    3    4 2
     9    3    5 2
    10    3    6 1
    11    6   11 ar
    12    6    7 ar
    13    7    8 ar
    14    7   42 1
    15    8    9 ar
    16    8   43 1
    17    9   10 ar
    18    9   12 1
    19   10   11 ar
    20   10   44 1
    21   11   45 1
    22   12   13 1
    23   13   18 ar
    24   13   14 ar
    25   14   15 ar
    26   14   46 1
    27   15   30 1
    28   15   16 ar
    29   16   17 ar
    30   16   27 1
    31   17   18 ar
    32   17   47 1
    33   18   19 1
    34   19   20 1
    35   19   48 1
    36   19   49 1
    37   20   25 am
    38   20   21 am
    39   21   22 2
    40   21   23 1
    41   23   24 1
    42   23   50 1
    43   23   51 1
    44   24   25 1
    45   25   26 2
    46   27   28 1
    47   27   29 1
    48   29   30 2
    49   29   31 1
    50   31   36 ar
    51   31   32 ar
    52   32   33 ar
    53   32   52 1
    54   33   34 ar
    55   33   53 1
    56   34   35 ar
    57   34   54 1
    58   35   36 ar
    59   35   55 1
@<TRIPOS>MOLECULE
CHEMBL573750
   38    41     0     0     0
SMALL
USER_CHARGES

@<TRIPOS>ATOM
      1 C1          0.4952    1.6123    0.1351 C.3       1 <0>        -0.0806
      2 C2          0.4381    0.1068    0.0996 C.2       1 <0>         0.0864
      3 C3          0.4343   -0.5739   -1.0724 C.2       1 <0>        -0.2901
      4 S1          0.3591   -2.2565   -0.4801 S.3       1 <0>         0.2440
      5 C4          0.3407   -1.9222    1.1692 C.2       1 <0>         0.2449
      6 N1          0.3951   -0.6080    1.2091 N.2       1 <0>        -0.5583
      7 N2          0.2867   -2.8158    2.2299 N.pl3     1 <0>        -0.5755
      8 C5          0.2402   -4.1742    1.9865 C.ar      1 <0>         0.4647
      9 C6          0.1788   -5.1029    3.0542 C.ar      1 <0>        -0.1657
     10 C7          0.1619   -4.6952    4.3924 C.ar      1 <0>        -0.0965
     11 C8          0.1011   -5.6467    5.3880 C.ar      1 <0>         0.0857
     12 C9          0.0568   -7.0067    5.0710 C.ar      1 <0>        -0.0734
     13 C10         0.0722   -7.4252    3.7751 C.ar      1 <0>        -0.0814
     14 C11         0.1332   -6.4828    2.7392 C.ar      1 <0>         0.1890
     15 N3          0.1500   -6.8493    1.4484 N.ar      1 <0>        -0.5289
     16 C12         0.2075   -5.9447    0.5006 C.ar      1 <0>         0.3565
     17 N4          0.2462   -4.6445    0.7468 N.ar      1 <0>        -0.5769
     18 O1          0.0844   -5.2582    6.6902 O.3       1 <0>        -0.2443
     19 C13        -1.0126   -4.5965    7.1448 C.ar      1 <0>         0.0824
     20 C14        -2.1235   -4.4493    6.3275 C.ar      1 <0>        -0.1702
     21 C15        -3.2376   -3.7767    6.7917 C.ar      1 <0>        -0.0899
     22 C16        -3.2467   -3.2497    8.0700 C.ar      1 <0>        -0.1177
     23 C17        -2.1414   -3.3936    8.8880 C.ar      1 <0>        -0.1168
     24 C18        -1.0254   -4.0713    8.4310 C.ar      1 <0>         0.0807
     25 F1          0.0525   -4.2175    9.2321 F         1 <0>        -0.1283
     26 H1          1.5358    1.9360    0.1586 H         1 <0>         0.0746
     27 H2          0.0093    2.0154   -0.7535 H         1 <0>         0.0765
     28 H3         -0.0182    1.9745    1.0258 H         1 <0>         0.0727
     29 H4          0.4676   -0.2011   -2.0855 H         1 <0>         0.1940
     30 H5          0.2817   -2.4860    3.1421 H         1 <0>         0.4327
     31 H6          0.1967   -3.6453    4.6430 H         1 <0>         0.1371
     32 H7          0.0101   -7.7369    5.8654 H         1 <0>         0.1500
     33 H8          0.0379   -8.4801    3.5462 H         1 <0>         0.1568
     34 H9          0.2194   -6.2752   -0.5275 H         1 <0>         0.2075
     35 H10        -2.1175   -4.8598    5.3286 H         1 <0>         0.1367
     36 H11        -4.1024   -3.6623    6.1551 H         1 <0>         0.1354
     37 H12        -4.1188   -2.7242    8.4300 H         1 <0>         0.1390
     38 H13        -2.1510   -2.9807    9.8859 H         1 <0>         0.1471
@<TRIPOS>BOND
     1    1    2 1
     2    1   26 1
     3    1   27 1
     4    1   28 1
     5    2    6 1
     6    2    3 2
     7    3    4 1
     8    3   29 1
     9    4    5 1
    10    5    6 2
    11    5    7 1
    12    7    8 1
    13    7   30 1
    14    8   17 ar
    15    8    9 ar
    16    9   14 ar
    17    9   10 ar
    18   10   11 ar
    19   10   31 1
    20   11   12 ar
    21   11   18 1
    22   12   13 ar
    23   12   32 1
    24   13   14 ar
    25   13   33 1
    26   14   15 ar
    27   15   16 ar
    28   16   17 ar
    29   16   34 1
    30   18   19 1
    31   19   24 ar
    32   19   20 ar
    33   20   21 ar
    34   20   35 1
    35   21   22 ar
    36   21   36 1
    37   22   23 ar
    38   22   37 1
    39   23   24 ar
    40   23   38 1
    41   24   25 1
@<TRIPOS>MOLECULE
CHEMBL573749
   44    47     0     0     0
SMALL
USER_CHARGES

@<TRIPOS>ATOM
      1 C1          0.4939    1.6122    0.1352 C.3       1 <0>        -0.0808
      2 C2          0.4370    0.1067    0.0997 C.2       1 <0>         0.0866
      3 C3          0.4333   -0.5740   -1.0723 C.2       1 <0>        -0.2892
      4 S1          0.3576   -2.2566   -0.4801 S.3       1 <0>         0.2437
      5 C4          0.3391   -1.9222    1.1693 C.2       1 <0>         0.2441
      6 N1          0.3942   -0.6081    1.2092 N.2       1 <0>        -0.5570
      7 N2          0.2848   -2.8158    2.2299 N.pl3     1 <0>        -0.5750
      8 C5          0.2379   -4.1742    1.9865 C.ar      1 <0>         0.4668
      9 C6          0.1762   -5.1029    3.0543 C.ar      1 <0>        -0.1675
     10 C7          0.1593   -4.6953    4.3924 C.ar      1 <0>        -0.0882
     11 C8          0.0981   -5.6467    5.3880 C.ar      1 <0>         0.0810
     12 C9          0.0536   -7.0066    5.0710 C.ar      1 <0>        -0.0740
     13 C10         0.0695   -7.4252    3.7751 C.ar      1 <0>        -0.0810
     14 C11         0.1304   -6.4829    2.7392 C.ar      1 <0>         0.1918
     15 N3          0.1473   -6.8493    1.4484 N.ar      1 <0>        -0.5301
     16 C12         0.2051   -5.9447    0.5006 C.ar      1 <0>         0.3593
     17 N4          0.2440   -4.6446    0.7468 N.ar      1 <0>        -0.5769
     18 O1          0.0813   -5.2582    6.6903 O.3       1 <0>        -0.2507
     19 C13        -1.0151   -4.5963    7.1444 C.ar      1 <0>         0.2043
     20 C14        -2.1263   -4.4487    6.3263 C.ar      1 <0>        -0.2145
     21 C15        -3.2394   -3.7755    6.7904 C.ar      1 <0>        -0.0266
     22 C16        -3.2473   -3.2487    8.0691 C.ar      1 <0>        -0.1648
     23 C17        -2.1415   -3.3944    8.8861 C.ar      1 <0>         0.0121
     24 C18        -1.0277   -4.0719    8.4288 C.ar      1 <0>        -0.6812
     25 S2          0.3784   -4.2634    9.4733 S.o2      1 <0>         2.5026
     26 O2          1.4760   -3.8163    8.6894 O.2       1 <0>        -0.9253
     27 O3          0.0289   -3.5955   10.6779 O.2       1 <0>        -0.9389
     28 C19         0.5040   -6.0497    9.7631 C.3       1 <0>        -0.6481
     29 H1          1.5344    1.9361    0.1586 H         1 <0>         0.0750
     30 H2          0.0079    2.0152   -0.7534 H         1 <0>         0.0765
     31 H3         -0.0194    1.9743    1.0259 H         1 <0>         0.0729
     32 H4          0.4662   -0.2012   -2.0854 H         1 <0>         0.1943
     33 H5          0.2797   -2.4861    3.1421 H         1 <0>         0.4334
     34 H6          0.1942   -3.6453    4.6430 H         1 <0>         0.1399
     35 H7          0.0063   -7.7368    5.8654 H         1 <0>         0.1507
     36 H8          0.0353   -8.4801    3.5462 H         1 <0>         0.1578
     37 H9          0.2170   -6.2753   -0.5275 H         1 <0>         0.2081
     38 H10        -2.1206   -4.8596    5.3276 H         1 <0>         0.1369
     39 H11        -4.1044   -3.6600    6.1540 H         1 <0>         0.1365
     40 H12        -4.1185   -2.7224    8.4299 H         1 <0>         0.1391
     41 H13        -2.1501   -2.9818    9.8841 H         1 <0>         0.1563
     42 H14         0.6360   -6.5638    8.8111 H         1 <0>         0.1338
     43 H15         1.3588   -6.2539   10.4078 H         1 <0>         0.1348
     44 H16        -0.4072   -6.4047   10.2445 H         1 <0>         0.1315
@<TRIPOS>BOND
     1    1    2 1
     2    1   29 1
     3    1   30 1
     4    1   31 1
     5    2    6 1
     6    2    3 2
     7    3    4 1
     8    3   32 1
     9    4    5 1
    10    5    6 2
    11    5    7 1
    12    7    8 1
    13    7   33 1
    14    8   17 ar
    15    8    9 ar
    16    9   14 ar
    17    9   10 ar
    18   10   11 ar
    19   10   34 1
    20   11   12 ar
    21   11   18 1
    22   12   13 ar
    23   12   35 1
    24   13   14 ar
    25   13   36 1
    26   14   15 ar
    27   15   16 ar
    28   16   17 ar
    29   16   37 1
    30   18   19 1
    31   19   24 ar
    32   19   20 ar
    33   20   21 ar
    34   20   38 1
    35   21   22 ar
    36   21   39 1
    37   22   23 ar
    38   22   40 1
    39   23   24 ar
    40   23   41 1
    41   24   25 1
    42   25   26 2
    43   25   27 2
    44   25   28 1
    45   28   42 1
    46   28   43 1
    47   28   44 1
@<TRIPOS>MOLECULE
CHEMBL572842
   38    41     0     0     0
SMALL
USER_CHARGES

@<TRIPOS>ATOM
      1 C1          1.6665    1.3202    0.0294 C.3       1 <0>         0.1040
      2 N1          1.3921   -0.1188    0.0179 N.pl3     1 <0>        -0.3694
      3 C2          1.2506   -0.8902   -1.0806 C.2       1 <0>         0.0604
      4 C3          1.0072   -2.1556   -0.6704 C.2       1 <0>        -0.2615
      5 C4          0.9993   -2.1594    0.7339 C.2       1 <0>         0.2974
      6 N2          1.2368   -0.9359    1.1450 N.2       1 <0>        -0.3262
      7 N3          0.7824   -3.2748    1.5524 N.pl3     1 <0>        -0.5992
      8 C5          0.5495   -4.5112    0.9861 C.ar      1 <0>         0.4827
      9 C6          0.3219   -5.6512    1.7958 C.ar      1 <0>        -0.1762
     10 C7          0.3215   -5.5810    3.1930 C.ar      1 <0>        -0.0655
     11 C8          0.0935   -6.7253    3.9271 C.ar      1 <0>         0.0867
     12 C9         -0.1352   -7.9466    3.2886 C.ar      1 <0>        -0.0714
     13 C10        -0.1386   -8.0372    1.9296 C.ar      1 <0>        -0.0890
     14 C11         0.0890   -6.8920    1.1543 C.ar      1 <0>         0.1947
     15 N4          0.0938   -6.9341   -0.1871 N.ar      1 <0>        -0.5417
     16 C12         0.3103   -5.8458   -0.8862 C.ar      1 <0>         0.3480
     17 N5          0.5271   -4.6638   -0.3311 N.ar      1 <0>        -0.5731
     18 O1          0.0915   -6.6648    5.2849 O.3       1 <0>        -0.2381
     19 C13         1.1828   -7.1289    5.9449 C.ar      1 <0>         0.2868
     20 C14         1.1756   -7.1845    7.3353 C.ar      1 <0>         0.0406
     21 C15         2.2964   -7.6610    7.9956 C.ar      1 <0>        -0.0753
     22 C16         3.3878   -8.0661    7.2391 C.ar      1 <0>        -0.1734
     23 C17         3.3244   -7.9829    5.8627 C.ar      1 <0>         0.1304
     24 N6          2.2410   -7.5293    5.2607 N.ar      1 <0>        -0.5016
     25 F1          0.0911   -6.7792    8.0314 F         1 <0>        -0.1200
     26 H1          2.7440    1.4846    0.0323 H         1 <0>         0.0749
     27 H2          1.2312    1.7802   -0.8577 H         1 <0>         0.0903
     28 H3          1.2285    1.7665    0.9222 H         1 <0>         0.0885
     29 H4          1.3193   -0.5560   -2.1053 H         1 <0>         0.1789
     30 H5          0.8469   -3.0114   -1.3094 H         1 <0>         0.1858
     31 H6          0.7959   -3.1781    2.5175 H         1 <0>         0.4256
     32 H7          0.4984   -4.6395    3.6916 H         1 <0>         0.1344
     33 H8         -0.3115   -8.8320    3.8813 H         1 <0>         0.1384
     34 H9         -0.3163   -8.9888    1.4507 H         1 <0>         0.1505
     35 H10         0.3071   -5.9163   -1.9639 H         1 <0>         0.2015
     36 H11         2.3207   -7.7157    9.0739 H         1 <0>         0.1584
     37 H12         4.2774   -8.4422    7.7225 H         1 <0>         0.1520
     38 H13         4.1712   -8.2966    5.2704 H         1 <0>         0.1708
@<TRIPOS>BOND
     1    1    2 1
     2    1   26 1
     3    1   27 1
     4    1   28 1
     5    2    6 1
     6    2    3 1
     7    3    4 2
     8    3   29 1
     9    4    5 1
    10    4   30 1
    11    5    6 2
    12    5    7 1
    13    7    8 1
    14    7   31 1
    15    8   17 ar
    16    8    9 ar
    17    9   14 ar
    18    9   10 ar
    19   10   11 ar
    20   10   32 1
    21   11   12 ar
    22   11   18 1
    23   12   13 ar
    24   12   33 1
    25   13   14 ar
    26   13   34 1
    27   14   15 ar
    28   15   16 ar
    29   16   17 ar
    30   16   35 1
    31   18   19 1
    32   19   24 ar
    33   19   20 ar
    34   20   21 ar
    35   20   25 1
    36   21   22 ar
    37   21   36 1
    38   22   23 ar
    39   22   37 1
    40   23   24 ar
    41   23   38 1
@<TRIPOS>MOLECULE
CHEMBL573751
   38    41     0     0     0
SMALL
USER_CHARGES

@<TRIPOS>ATOM
      1 C1          0.4469    1.6035    0.1229 C.3       1 <0>        -0.0806
      2 C2          0.3972    0.0976    0.0900 C.2       1 <0>         0.0864
      3 C3          0.3941   -0.5850   -1.0809 C.2       1 <0>        -0.2899
      4 S1          0.3285   -2.2670   -0.4856 S.3       1 <0>         0.2438
      5 C4          0.3121   -1.9300    1.1632 C.2       1 <0>         0.2448
      6 N1          0.3601   -0.6155    1.2008 N.2       1 <0>        -0.5582
      7 N2          0.2648   -2.8221    2.2254 N.pl3     1 <0>        -0.5753
      8 C5          0.2244   -4.1811    1.9844 C.ar      1 <0>         0.4643
      9 C6          0.1698   -5.1084    3.0538 C.ar      1 <0>        -0.1657
     10 C7          0.1544   -4.6986    4.3913 C.ar      1 <0>        -0.0978
     11 C8          0.1002   -5.6487    5.3886 C.ar      1 <0>         0.0857
     12 C9          0.0610   -7.0094    5.0739 C.ar      1 <0>        -0.0742
     13 C10         0.0751   -7.4299    3.7786 C.ar      1 <0>        -0.0817
     14 C11         0.1298   -6.4890    2.7411 C.ar      1 <0>         0.1884
     15 N3          0.1451   -6.8575    1.4508 N.ar      1 <0>        -0.5292
     16 C12         0.1962   -5.9542    0.5014 C.ar      1 <0>         0.3565
     17 N4          0.2300   -4.6535    0.7454 N.ar      1 <0>        -0.5769
     18 O1          0.0854   -5.2582    6.6903 O.3       1 <0>        -0.2477
     19 C13        -1.0109   -4.5958    7.1453 C.ar      1 <0>         0.1063
     20 C14        -2.1241   -4.4532    6.3297 C.ar      1 <0>        -0.1681
     21 C15        -3.2377   -3.7802    6.7937 C.ar      1 <0>        -0.1137
     22 C16        -3.2432   -3.2480    8.0720 C.ar      1 <0>         0.0714
     23 C17        -2.1328   -3.3896    8.8870 C.ar      1 <0>        -0.1138
     24 C18        -1.0198   -4.0666    8.4277 C.ar      1 <0>        -0.1109
     25 F1         -4.3328   -2.5897    8.5242 F         1 <0>        -0.1366
     26 H1          1.4859    1.9323    0.1435 H         1 <0>         0.0746
     27 H2         -0.0429    2.0027   -0.7652 H         1 <0>         0.0765
     28 H3         -0.0662    1.9646    1.0142 H         1 <0>         0.0728
     29 H4          0.4231   -0.2138   -2.0946 H         1 <0>         0.1940
     30 H5          0.2602   -2.4909    3.1371 H         1 <0>         0.4327
     31 H6          0.1849   -3.6481    4.6401 H         1 <0>         0.1372
     32 H7          0.0192   -7.7385    5.8696 H         1 <0>         0.1500
     33 H8          0.0446   -8.4853    3.5515 H         1 <0>         0.1563
     34 H9          0.2071   -6.2864   -0.5262 H         1 <0>         0.2074
     35 H10        -2.1200   -4.8678    5.3325 H         1 <0>         0.1368
     36 H11        -4.1043   -3.6687    6.1590 H         1 <0>         0.1407
     37 H12        -2.1384   -2.9737    9.8837 H         1 <0>         0.1474
     38 H13        -0.1556   -4.1808    9.0653 H         1 <0>         0.1464
@<TRIPOS>BOND
     1    1    2 1
     2    1   26 1
     3    1   27 1
     4    1   28 1
     5    2    6 1
     6    2    3 2
     7    3    4 1
     8    3   29 1
     9    4    5 1
    10    5    6 2
    11    5    7 1
    12    7    8 1
    13    7   30 1
    14    8   17 ar
    15    8    9 ar
    16    9   14 ar
    17    9   10 ar
    18   10   11 ar
    19   10   31 1
    20   11   12 ar
    21   11   18 1
    22   12   13 ar
    23   12   32 1
    24   13   14 ar
    25   13   33 1
    26   14   15 ar
    27   15   16 ar
    28   16   17 ar
    29   16   34 1
    30   18   19 1
    31   19   24 ar
    32   19   20 ar
    33   20   21 ar
    34   20   35 1
    35   21   22 ar
    36   21   36 1
    37   22   23 ar
    38   22   25 1
    39   23   24 ar
    40   23   37 1
    41   24   38 1
@<TRIPOS>MOLECULE
CHEMBL379153
   54    56     0     0     0
SMALL
USER_CHARGES

@<TRIPOS>ATOM
      1 C1          3.0187   -2.4408    1.0252 C.3       1 <0>        -0.1766
      2 C2          2.8246   -0.9441    1.2760 C.3       1 <0>         0.1224
      3 H1          3.0627   -0.7158    2.3149 H         1 <0>         0.0850
      4 C3          3.7366   -0.1601    0.3678 C.ar      1 <0>        -0.0879
      5 C4          3.3352    0.1439   -0.9196 C.ar      1 <0>        -0.0931
      6 C5          4.1718    0.8630   -1.7527 C.ar      1 <0>        -0.1225
      7 C6          5.4094    1.2784   -1.2983 C.ar      1 <0>        -0.1161
      8 C7          5.8104    0.9751   -0.0106 C.ar      1 <0>        -0.1189
      9 C8          4.9721    0.2598    0.8239 C.ar      1 <0>        -0.1070
     10 O1          1.4664   -0.5886    1.0093 O.3       1 <0>        -0.3020
     11 C9          0.5658   -0.8030    2.0043 C.ar      1 <0>         0.1695
     12 C10         0.9947   -1.2657    3.2376 C.ar      1 <0>        -0.2210
     13 C11         0.0694   -1.4850    4.2584 C.ar      1 <0>        -0.0457
     14 C12        -1.2852   -1.2369    4.0320 C.ar      1 <0>        -0.1280
     15 C13        -1.7052   -0.7745    2.7961 C.ar      1 <0>         0.1684
     16 C14        -0.7809   -0.5528    1.7853 C.ar      1 <0>        -0.2250
     17 O2         -3.0241   -0.5326    2.5746 O.3       1 <0>        -0.3009
     18 C15        -3.3979   -0.1353    1.2538 C.3       1 <0>         0.0732
     19 C16        -3.5557   -1.3765    0.3732 C.3       1 <0>        -0.1809
     20 C17        -4.7246    0.6250    1.3062 C.3       1 <0>        -0.1490
     21 C18         0.5224   -1.9791    5.5759 C.2       1 <0>         0.5446
     22 O3         -0.2853   -2.1696    6.4640 O.2       1 <0>        -0.4550
     23 N1          1.8309   -2.2185    5.7923 N.am      1 <0>        -0.6530
     24 C19         2.2443   -2.7816    6.9914 C.ar      1 <0>         0.3359
     25 C20         3.6062   -2.9182    7.2523 C.ar      1 <0>        -0.2177
     26 C21         4.0112   -3.4735    8.4359 C.ar      1 <0>        -0.0204
     27 C22         3.0300   -3.8884    9.3512 C.ar      1 <0>        -0.2050
     28 C23         1.6823   -3.7203    9.0225 C.ar      1 <0>         0.1557
     29 N2          1.3376   -3.1766    7.8744 N.ar      1 <0>        -0.4861
     30 C24         3.4156   -4.4918   10.6377 C.2       1 <0>         0.5267
     31 O4          4.5982   -4.6350   10.9160 O.co2     1 <0>        -0.6873
     32 O5          2.5534   -4.8499   11.4282 O.co2     1 <0>        -0.6833
     33 H2          2.7807   -2.6691   -0.0137 H         1 <0>         0.0703
     34 H3          4.0547   -2.7119    1.2286 H         1 <0>         0.0778
     35 H4          2.3591   -3.0078    1.6821 H         1 <0>         0.0698
     36 H5          2.3683   -0.1807   -1.2747 H         1 <0>         0.1270
     37 H6          3.8585    1.0999   -2.7588 H         1 <0>         0.1231
     38 H7          6.0633    1.8396   -1.9494 H         1 <0>         0.1225
     39 H8          6.7774    1.2994    0.3444 H         1 <0>         0.1255
     40 H9          5.2838    0.0260    1.8312 H         1 <0>         0.1255
     41 H10         2.0439   -1.4567    3.4085 H         1 <0>         0.1329
     42 H11        -2.0049   -1.4057    4.8194 H         1 <0>         0.1486
     43 H12        -1.1114   -0.1882    0.8239 H         1 <0>         0.1419
     44 H13        -2.6254    0.5105    0.8364 H         1 <0>         0.0764
     45 H14        -3.8408   -1.0734   -0.6342 H         1 <0>         0.0724
     46 H15        -2.6105   -1.9180    0.3359 H         1 <0>         0.0637
     47 H16        -4.3283   -2.0222    0.7907 H         1 <0>         0.0690
     48 H17        -4.6122    1.5092    1.9335 H         1 <0>         0.0663
     49 H18        -5.0097    0.9281    0.2987 H         1 <0>         0.0772
     50 H19        -5.4972   -0.0208    1.7236 H         1 <0>         0.0686
     51 H20         2.4838   -1.9971    5.1099 H         1 <0>         0.4097
     52 H21         4.3357   -2.5893    6.5269 H         1 <0>         0.1260
     53 H22         5.0611   -3.5903    8.6608 H         1 <0>         0.1407
     54 H23         0.9178   -4.0354    9.7172 H         1 <0>         0.1663
@<TRIPOS>BOND
     1    1    2 1
     2    1   33 1
     3    1   34 1
     4    1   35 1
     5    2    3 1
     6    2    4 1
     7    2   10 1
     8    4    9 ar
     9    4    5 ar
    10    5    6 ar
    11    5   36 1
    12    6    7 ar
    13    6   37 1
    14    7    8 ar
    15    7   38 1
    16    8    9 ar
    17    8   39 1
    18    9   40 1
    19   10   11 1
    20   11   16 ar
    21   11   12 ar
    22   12   13 ar
    23   12   41 1
    24   13   14 ar
    25   13   21 1
    26   14   15 ar
    27   14   42 1
    28   15   16 ar
    29   15   17 1
    30   16   43 1
    31   17   18 1
    32   18   19 1
    33   18   20 1
    34   18   44 1
    35   19   45 1
    36   19   46 1
    37   19   47 1
    38   20   48 1
    39   20   49 1
    40   20   50 1
    41   21   22 2
    42   21   23 am
    43   23   24 1
    44   23   51 1
    45   24   29 ar
    46   24   25 ar
    47   25   26 ar
    48   25   52 1
    49   26   27 ar
    50   26   53 1
    51   27   28 ar
    52   27   30 1
    53   28   29 ar
    54   28   54 1
    55   30   31 2
    56   30   32 1
@<TRIPOS>MOLECULE
CHEMBL584378
   38    41     0     0     0
SMALL
USER_CHARGES

@<TRIPOS>ATOM
      1 C1          1.6660    1.3195    0.0282 C.3       1 <0>         0.1040
      2 N1          1.3917   -0.1196    0.0169 N.pl3     1 <0>        -0.3693
      3 C2          1.2502   -0.8911   -1.0814 C.2       1 <0>         0.0604
      4 C3          1.0073   -2.1566   -0.6711 C.2       1 <0>        -0.2615
      5 C4          0.9997   -2.1602    0.7332 C.2       1 <0>         0.2974
      6 N2          1.2364   -0.9364    1.1442 N.2       1 <0>        -0.3261
      7 N3          0.7828   -3.2754    1.5519 N.pl3     1 <0>        -0.5991
      8 C5          0.5494   -4.5118    0.9858 C.ar      1 <0>         0.4827
      9 C6          0.3217   -5.6517    1.7957 C.ar      1 <0>        -0.1763
     10 C7          0.3215   -5.5813    3.1928 C.ar      1 <0>        -0.0649
     11 C8          0.0927   -6.7253    3.9271 C.ar      1 <0>         0.0859
     12 C9         -0.1373   -7.9465    3.2888 C.ar      1 <0>        -0.0709
     13 C10        -0.1415   -8.0372    1.9298 C.ar      1 <0>        -0.0892
     14 C11         0.0878   -6.8924    1.1544 C.ar      1 <0>         0.1950
     15 N4          0.0919   -6.9345   -0.1870 N.ar      1 <0>        -0.5419
     16 C12         0.3085   -5.8464   -0.8864 C.ar      1 <0>         0.3481
     17 N5          0.5267   -4.6646   -0.3314 N.ar      1 <0>        -0.5732
     18 O1          0.0915   -6.6647    5.2849 O.3       1 <0>        -0.2319
     19 C13         1.1823   -7.1298    5.9443 C.ar      1 <0>         0.3404
     20 C14         1.1756   -7.1852    7.3334 C.ar      1 <0>        -0.1630
     21 C15         2.2952   -7.6619    7.9935 C.ar      1 <0>        -0.0128
     22 C16         3.3866   -8.0680    7.2376 C.ar      1 <0>        -0.1978
     23 C17         3.3233   -7.9851    5.8610 C.ar      1 <0>         0.1548
     24 N6          2.2400   -7.5313    5.2593 N.ar      1 <0>        -0.5179
     25 Br1        -0.3420   -6.6167    8.3079 Br        1 <0>        -0.0155
     26 H1          2.7435    1.4840    0.0310 H         1 <0>         0.0749
     27 H2          1.2306    1.7793   -0.8590 H         1 <0>         0.0902
     28 H3          1.2279    1.7659    0.9209 H         1 <0>         0.0885
     29 H4          1.3188   -0.5571   -2.1062 H         1 <0>         0.1788
     30 H5          0.8472   -3.0125   -1.3100 H         1 <0>         0.1857
     31 H6          0.7965   -3.1787    2.5170 H         1 <0>         0.4256
     32 H7          0.4992   -4.6399    3.6913 H         1 <0>         0.1344
     33 H8         -0.3142   -8.8317    3.8816 H         1 <0>         0.1381
     34 H9         -0.3206   -8.9886    1.4511 H         1 <0>         0.1502
     35 H10         0.3047   -5.9170   -1.9641 H         1 <0>         0.2015
     36 H11         2.3193   -7.7163    9.0719 H         1 <0>         0.1542
     37 H12         4.2757   -8.4445    7.7213 H         1 <0>         0.1505
     38 H13         4.1699   -8.2994    5.2686 H         1 <0>         0.1699
@<TRIPOS>BOND
     1    1    2 1
     2    1   26 1
     3    1   27 1
     4    1   28 1
     5    2    6 1
     6    2    3 1
     7    3    4 2
     8    3   29 1
     9    4    5 1
    10    4   30 1
    11    5    6 2
    12    5    7 1
    13    7    8 1
    14    7   31 1
    15    8   17 ar
    16    8    9 ar
    17    9   14 ar
    18    9   10 ar
    19   10   11 ar
    20   10   32 1
    21   11   12 ar
    22   11   18 1
    23   12   13 ar
    24   12   33 1
    25   13   14 ar
    26   13   34 1
    27   14   15 ar
    28   15   16 ar
    29   16   17 ar
    30   16   35 1
    31   18   19 1
    32   19   24 ar
    33   19   20 ar
    34   20   21 ar
    35   20   25 1
    36   21   22 ar
    37   21   36 1
    38   22   23 ar
    39   22   37 1
    40   23   24 ar
    41   23   38 1
@<TRIPOS>MOLECULE
CHEMBL1164315
   60    62     0     0     0
SMALL
USER_CHARGES

@<TRIPOS>ATOM
      1 C1          0.7466    1.7899   -0.5458 C.3       1 <0>        -0.1484
      2 C2          0.6747    0.2642   -0.4567 C.3       1 <0>        -0.0890
      3 C3          1.4468   -0.2117    0.7755 C.3       1 <0>        -0.1445
      4 C4         -0.7874   -0.1717   -0.3421 C.3       1 <0>        -0.0411
      5 C5         -0.8674   -1.6761   -0.3780 C.2       1 <0>         0.0950
      6 C6         -1.4873   -2.3758    0.6039 C.2       1 <0>        -0.2797
      7 S1         -1.2579   -4.0465    0.0175 S.3       1 <0>         0.2108
      8 C7         -0.4117   -3.6845   -1.3915 C.2       1 <0>         0.2442
      9 N1         -0.3417   -2.3710   -1.3697 N.2       1 <0>        -0.5460
     10 N2          0.0877   -4.5603   -2.3484 N.am      1 <0>        -0.6106
     11 C8         -0.0870   -5.8887   -2.2026 C.2       1 <0>         0.5184
     12 O1         -0.5985   -6.3259   -1.1935 O.2       1 <0>        -0.4831
     13 C9          0.3533   -6.8308   -3.2933 C.3       1 <0>        -0.0662
     14 C10        -0.3423   -6.4552   -4.6032 C.3       1 <0>        -0.1080
     15 C11         0.2183   -7.3098   -5.7417 C.3       1 <0>        -0.0888
     16 C12         1.6907   -6.9552   -5.9714 C.3       1 <0>        -0.1560
     17 C13         2.2209   -7.7577   -7.1625 C.3       1 <0>         0.0598
     18 O2          1.4259   -7.4767   -8.3163 O.3       1 <0>        -0.3812
     19 C14         0.0488   -7.8318   -8.1765 C.3       1 <0>         0.0598
     20 C15        -0.5687   -7.0323   -7.0262 C.3       1 <0>        -0.1513
     21 C16        -0.0144   -8.2428   -2.9162 C.ar      1 <0>        -0.0159
     22 C17        -1.3385   -8.5793   -2.7050 C.ar      1 <0>        -0.1077
     23 C18        -1.6758   -9.8744   -2.3591 C.ar      1 <0>        -0.0208
     24 C19        -0.6891  -10.8332   -2.2248 C.ar      1 <0>        -0.6548
     25 C20         0.6349  -10.4970   -2.4368 C.ar      1 <0>        -0.0222
     26 C21         0.9718   -9.2028   -2.7869 C.ar      1 <0>        -0.1279
     27 S2         -1.1189  -12.4838   -1.7827 S.o2      1 <0>         2.4978
     28 O3          0.0418  -13.0034   -1.1488 O.2       1 <0>        -0.9360
     29 O4         -2.3411  -12.3613   -1.0682 O.2       1 <0>        -0.9352
     30 C22        -1.4006  -13.3310   -3.3618 C.3       1 <0>        -0.6504
     31 H1          1.7882    2.1005   -0.6274 H         1 <0>         0.0556
     32 H2          0.1965    2.1289   -1.4236 H         1 <0>         0.0549
     33 H3          0.3062    2.2273    0.3503 H         1 <0>         0.0549
     34 H4          1.1151   -0.1732   -1.3527 H         1 <0>         0.0779
     35 H5          1.3956   -1.2986    0.8389 H         1 <0>         0.0489
     36 H6          2.4885    0.0989    0.6939 H         1 <0>         0.0529
     37 H7          1.0064    0.2257    1.6715 H         1 <0>         0.0542
     38 H8         -1.2023    0.1919    0.5980 H         1 <0>         0.0806
     39 H9         -1.3563    0.2424   -1.1746 H         1 <0>         0.0788
     40 H10        -1.9829   -2.0206    1.4953 H         1 <0>         0.1940
     41 H11         0.5620   -4.2154   -3.1210 H         1 <0>         0.4242
     42 H12         1.4333   -6.7586   -3.4217 H         1 <0>         0.1223
     43 H13        -1.4137   -6.6325   -4.5094 H         1 <0>         0.0807
     44 H14        -0.1659   -5.4014   -4.8190 H         1 <0>         0.0788
     45 H15         0.1322   -8.3649   -5.4820 H         1 <0>         0.0801
     46 H16         1.7802   -5.8894   -6.1815 H         1 <0>         0.0760
     47 H17         2.2680   -7.2016   -5.0803 H         1 <0>         0.0742
     48 H18         3.2561   -7.4778   -7.3574 H         1 <0>         0.0951
     49 H19         2.1686   -8.8225   -6.9356 H         1 <0>         0.0508
     50 H20        -0.4808   -7.6053   -9.1019 H         1 <0>         0.0953
     51 H21        -0.0319   -8.8976   -7.9629 H         1 <0>         0.0503
     52 H22        -1.6072   -7.3338   -6.8893 H         1 <0>         0.0755
     53 H23        -0.5249   -5.9681   -7.2575 H         1 <0>         0.0747
     54 H24        -2.1094   -7.8302   -2.8100 H         1 <0>         0.1298
     55 H25        -2.7102  -10.1371   -2.1935 H         1 <0>         0.1438
     56 H26         1.4058  -11.2460   -2.3315 H         1 <0>         0.1445
     57 H27         2.0058   -8.9410   -2.9562 H         1 <0>         0.1334
     58 H28        -0.4897  -13.2979   -3.9595 H         1 <0>         0.1314
     59 H29        -1.6740  -14.3692   -3.1735 H         1 <0>         0.1339
     60 H30        -2.2074  -12.8350   -3.9014 H         1 <0>         0.1315
@<TRIPOS>BOND
     1    1    2 1
     2    1   31 1
     3    1   32 1
     4    1   33 1
     5    2    3 1
     6    2    4 1
     7    2   34 1
     8    3   35 1
     9    3   36 1
    10    3   37 1
    11    4    5 1
    12    4   38 1
    13    4   39 1
    14    5    9 1
    15    5    6 2
    16    6    7 1
    17    6   40 1
    18    7    8 1
    19    8    9 2
    20    8   10 1
    21   10   11 am
    22   10   41 1
    23   11   12 2
    24   11   13 1
    25   13   14 1
    26   13   21 1
    27   13   42 1
    28   14   15 1
    29   14   43 1
    30   14   44 1
    31   15   20 1
    32   15   16 1
    33   15   45 1
    34   16   17 1
    35   16   46 1
    36   16   47 1
    37   17   18 1
    38   17   48 1
    39   17   49 1
    40   18   19 1
    41   19   20 1
    42   19   50 1
    43   19   51 1
    44   20   52 1
    45   20   53 1
    46   21   26 ar
    47   21   22 ar
    48   22   23 ar
    49   22   54 1
    50   23   24 ar
    51   23   55 1
    52   24   25 ar
    53   24   27 1
    54   25   26 ar
    55   25   56 1
    56   26   57 1
    57   27   28 2
    58   27   29 2
    59   27   30 1
    60   30   58 1
    61   30   59 1
    62   30   60 1
@<TRIPOS>MOLECULE
CHEMBL1164315__1
   60    62     0     0     0
SMALL
USER_CHARGES

@<TRIPOS>ATOM
      1 C1         -1.4334    1.8361   -1.3644 C.3       1 <0>        -0.1485
      2 C2         -1.2962    0.3254   -1.1647 C.3       1 <0>        -0.0890
      3 C3         -0.8304    0.0402    0.2645 C.3       1 <0>        -0.1443
      4 C4         -2.6503   -0.3457   -1.4033 C.3       1 <0>        -0.0414
      5 C5         -2.4895   -1.8422   -1.3276 C.2       1 <0>         0.0957
      6 C6         -3.2429   -2.5936   -0.4875 C.2       1 <0>        -0.2803
      7 S1         -2.6119   -4.2253   -0.8441 S.3       1 <0>         0.2096
      8 C7         -1.4752   -3.7865   -2.0052 C.2       1 <0>         0.2448
      9 N1         -1.6128   -2.4804   -2.0804 N.2       1 <0>        -0.5457
     10 N2         -0.6056   -4.6058   -2.7156 N.am      1 <0>        -0.6102
     11 C8         -0.6114   -5.9371   -2.5058 C.2       1 <0>         0.5201
     12 O1         -1.3753   -6.4203   -1.6971 O.2       1 <0>        -0.4857
     13 C9          0.3314   -6.8254   -3.2760 C.3       1 <0>        -0.0663
     14 C10         1.7751   -6.4115   -2.9840 C.3       1 <0>        -0.1084
     15 C11         2.7261   -7.2179   -3.8707 C.3       1 <0>        -0.0896
     16 C12         4.1753   -6.8992   -3.4904 C.3       1 <0>        -0.1508
     17 C13         5.1190   -7.6495   -4.4339 C.3       1 <0>         0.0591
     18 O2          4.8355   -7.2776   -5.7842 O.3       1 <0>        -0.3813
     19 C14         3.5089   -7.5949   -6.2105 C.3       1 <0>         0.0593
     20 C15         2.5005   -6.8423   -5.3385 C.3       1 <0>        -0.1552
     21 C16         0.1254   -8.2586   -2.8581 C.ar      1 <0>        -0.0149
     22 C17         0.4372   -8.6548   -1.5710 C.ar      1 <0>        -0.1094
     23 C18         0.2483   -9.9695   -1.1876 C.ar      1 <0>        -0.0207
     24 C19        -0.2529  -10.8877   -2.0913 C.ar      1 <0>        -0.6549
     25 C20        -0.5655  -10.4912   -3.3781 C.ar      1 <0>        -0.0216
     26 C21        -0.3806   -9.1756   -3.7601 C.ar      1 <0>        -0.1276
     27 S2         -0.4926  -12.5637   -1.6030 S.o2      1 <0>         2.4982
     28 O3         -0.4008  -13.3094   -2.8091 O.2       1 <0>        -0.9368
     29 O4          0.4390  -12.7714   -0.5502 O.2       1 <0>        -0.9365
     30 C22        -2.1872  -12.6237   -0.9587 C.3       1 <0>        -0.6501
     31 H1         -0.4688    2.3142   -1.1944 H         1 <0>         0.0557
     32 H2         -1.7653    2.0393   -2.3826 H         1 <0>         0.0550
     33 H3         -2.1641    2.2310   -0.6585 H         1 <0>         0.0548
     34 H4         -0.5655   -0.0695   -1.8706 H         1 <0>         0.0780
     35 H5         -0.7327   -1.0361    0.4068 H         1 <0>         0.0487
     36 H6          0.1342    0.5183    0.4345 H         1 <0>         0.0530
     37 H7         -1.5611    0.4351    0.9704 H         1 <0>         0.0541
     38 H8         -3.3578   -0.0172   -0.6420 H         1 <0>         0.0807
     39 H9         -3.0237   -0.0698   -2.3895 H         1 <0>         0.0789
     40 H10        -4.0123   -2.2891    0.2065 H         1 <0>         0.1938
     41 H11         0.0054   -4.2194   -3.3623 H         1 <0>         0.4245
     42 H12         0.1337   -6.7261   -4.3433 H         1 <0>         0.1221
     43 H13         1.8976   -5.3486   -3.1924 H         1 <0>         0.0786
     44 H14         2.0037   -6.6049   -1.9360 H         1 <0>         0.0811
     45 H15         2.5375   -8.2827   -3.7337 H         1 <0>         0.0805
     46 H16         4.3478   -5.8266   -3.5798 H         1 <0>         0.0744
     47 H17         4.3602   -7.2145   -2.4636 H         1 <0>         0.0758
     48 H18         6.1512   -7.3930   -4.1952 H         1 <0>         0.0956
     49 H19         4.9742   -8.7233   -4.3145 H         1 <0>         0.0514
     50 H20         3.3812   -7.2989   -7.2517 H         1 <0>         0.0950
     51 H21         3.3431   -8.6679   -6.1144 H         1 <0>         0.0514
     52 H22         1.4877   -7.1169   -5.6332 H         1 <0>         0.0737
     53 H23         2.6392   -5.7686   -5.4652 H         1 <0>         0.0756
     54 H24         0.8288   -7.9374   -0.8650 H         1 <0>         0.1303
     55 H25         0.4926  -10.2792   -0.1823 H         1 <0>         0.1438
     56 H26        -0.9568  -11.2087   -4.0842 H         1 <0>         0.1445
     57 H27        -0.6284   -8.8651   -4.7644 H         1 <0>         0.1332
     58 H28        -2.8847  -12.3284   -1.7426 H         1 <0>         0.1319
     59 H29        -2.4160  -13.6381   -0.6320 H         1 <0>         0.1339
     60 H30        -2.2793  -11.9406   -0.1143 H         1 <0>         0.1324
@<TRIPOS>BOND
     1    1    2 1
     2    1   31 1
     3    1   32 1
     4    1   33 1
     5    2    3 1
     6    2    4 1
     7    2   34 1
     8    3   35 1
     9    3   36 1
    10    3   37 1
    11    4    5 1
    12    4   38 1
    13    4   39 1
    14    5    9 1
    15    5    6 2
    16    6    7 1
    17    6   40 1
    18    7    8 1
    19    8    9 2
    20    8   10 1
    21   10   11 am
    22   10   41 1
    23   11   12 2
    24   11   13 1
    25   13   14 1
    26   13   21 1
    27   13   42 1
    28   14   15 1
    29   14   43 1
    30   14   44 1
    31   15   20 1
    32   15   16 1
    33   15   45 1
    34   16   17 1
    35   16   46 1
    36   16   47 1
    37   17   18 1
    38   17   48 1
    39   17   49 1
    40   18   19 1
    41   19   20 1
    42   19   50 1
    43   19   51 1
    44   20   52 1
    45   20   53 1
    46   21   26 ar
    47   21   22 ar
    48   22   23 ar
    49   22   54 1
    50   23   24 ar
    51   23   55 1
    52   24   25 ar
    53   24   27 1
    54   25   26 ar
    55   25   56 1
    56   26   57 1
    57   27   28 2
    58   27   29 2
    59   27   30 1
    60   30   58 1
    61   30   59 1
    62   30   60 1
@<TRIPOS>MOLECULE
CHEMBL1165042
   57    59     0     0     0
SMALL
USER_CHARGES

@<TRIPOS>ATOM
      1 C1         -0.7967    1.2491   -0.0890 C.3       1 <0>        -0.1410
      2 C2         -0.7697   -0.2801   -0.0476 C.3       1 <0>        -0.0229
      3 C3         -0.1748   -0.8151   -1.3517 C.3       1 <0>        -0.1455
      4 C4          0.0749   -0.7363    1.1141 C.2       1 <0>         0.0952
      5 C5          1.4216   -0.8515    1.0083 C.2       1 <0>        -0.2751
      6 S1          1.8379   -1.4105    2.6521 S.3       1 <0>         0.2126
      7 C6          0.2806   -1.4382    3.2898 C.2       1 <0>         0.2430
      8 N1         -0.4630   -1.0363    2.2818 N.2       1 <0>        -0.5495
      9 N2         -0.1217   -1.7946    4.5717 N.am      1 <0>        -0.6106
     10 C7          0.7939   -2.1798    5.4826 C.2       1 <0>         0.5184
     11 O1          1.9563   -2.3034    5.1593 O.2       1 <0>        -0.4831
     12 C8          0.3734   -2.4568    6.9030 C.3       1 <0>        -0.0662
     13 C9         -0.3048   -1.2151    7.4855 C.3       1 <0>        -0.1081
     14 C10        -0.8683   -1.5436    8.8695 C.3       1 <0>        -0.0888
     15 C11        -1.9964   -2.5708    8.7328 C.3       1 <0>        -0.1561
     16 C12        -2.6061   -2.8341   10.1121 C.3       1 <0>         0.0599
     17 O2         -3.0787   -1.6041   10.6652 O.3       1 <0>        -0.3812
     18 C13        -2.0591   -0.6220   10.8600 C.3       1 <0>         0.0599
     19 C14        -1.4274   -0.2698    9.5107 C.3       1 <0>        -0.1513
     20 C15         1.5867   -2.8002    7.7282 C.ar      1 <0>        -0.0159
     21 C16         2.6137   -1.8846    7.8615 C.ar      1 <0>        -0.1077
     22 C17         3.7266   -2.1997    8.6184 C.ar      1 <0>        -0.0208
     23 C18         3.8124   -3.4301    9.2425 C.ar      1 <0>        -0.6548
     24 C19         2.7849   -4.3454    9.1100 C.ar      1 <0>        -0.0222
     25 C20         1.6700   -4.0287    8.3565 C.ar      1 <0>        -0.1279
     26 S2          5.2315   -3.8322   10.2064 S.o2      1 <0>         2.4978
     27 O3          5.3051   -5.2508   10.1692 O.2       1 <0>        -0.9360
     28 O4          6.2765   -3.0380    9.6618 O.2       1 <0>        -0.9352
     29 C21         4.8298   -3.2712   11.8840 C.3       1 <0>        -0.6504
     30 H1          0.2187    1.6274   -0.2073 H         1 <0>         0.0567
     31 H2         -1.4076    1.5791   -0.9292 H         1 <0>         0.0631
     32 H3         -1.2205    1.6303    0.8401 H         1 <0>         0.0557
     33 H4         -1.7850   -0.6584    0.0707 H         1 <0>         0.0856
     34 H5          0.8406   -0.4368   -1.4700 H         1 <0>         0.0593
     35 H6         -0.1555   -1.9046   -1.3223 H         1 <0>         0.0575
     36 H7         -0.7857   -0.4851   -2.1920 H         1 <0>         0.0643
     37 H8          2.0651   -0.6586    0.1627 H         1 <0>         0.1947
     38 H9         -1.0614   -1.7661    4.8106 H         1 <0>         0.4242
     39 H10        -0.3253   -3.2933    6.9185 H         1 <0>         0.1224
     40 H11         0.4246   -0.4096    7.5720 H         1 <0>         0.0807
     41 H12        -1.1157   -0.9018    6.8280 H         1 <0>         0.0788
     42 H13        -0.0766   -1.9511    9.4982 H         1 <0>         0.0802
     43 H14        -2.7638   -2.1820    8.0634 H         1 <0>         0.0761
     44 H15        -1.5957   -3.5002    8.3282 H         1 <0>         0.0743
     45 H16        -3.4376   -3.5322   10.0147 H         1 <0>         0.0952
     46 H17        -1.8482   -3.2607   10.7692 H         1 <0>         0.0508
     47 H18        -2.4965    0.2735   11.3014 H         1 <0>         0.0953
     48 H19        -1.2940   -1.0196   11.5268 H         1 <0>         0.0503
     49 H20        -0.6198    0.4463    9.6624 H         1 <0>         0.0755
     50 H21        -2.1833    0.1654    8.8571 H         1 <0>         0.0747
     51 H22         2.5467   -0.9233    7.3739 H         1 <0>         0.1298
     52 H23         4.5294   -1.4846    8.7219 H         1 <0>         0.1438
     53 H24         2.8520   -5.3069    9.5973 H         1 <0>         0.1445
     54 H25         0.8657   -4.7423    8.2560 H         1 <0>         0.1334
     55 H26         3.9407   -3.7928   12.2384 H         1 <0>         0.1314
     56 H27         5.6663   -3.4859   12.5490 H         1 <0>         0.1339
     57 H28         4.6409   -2.1977   11.8727 H         1 <0>         0.1315
@<TRIPOS>BOND
     1    1    2 1
     2    1   30 1
     3    1   31 1
     4    1   32 1
     5    2    3 1
     6    2    4 1
     7    2   33 1
     8    3   34 1
     9    3   35 1
    10    3   36 1
    11    4    8 1
    12    4    5 2
    13    5    6 1
    14    5   37 1
    15    6    7 1
    16    7    8 2
    17    7    9 1
    18    9   10 am
    19    9   38 1
    20   10   11 2
    21   10   12 1
    22   12   13 1
    23   12   20 1
    24   12   39 1
    25   13   14 1
    26   13   40 1
    27   13   41 1
    28   14   19 1
    29   14   15 1
    30   14   42 1
    31   15   16 1
    32   15   43 1
    33   15   44 1
    34   16   17 1
    35   16   45 1
    36   16   46 1
    37   17   18 1
    38   18   19 1
    39   18   47 1
    40   18   48 1
    41   19   49 1
    42   19   50 1
    43   20   25 ar
    44   20   21 ar
    45   21   22 ar
    46   21   51 1
    47   22   23 ar
    48   22   52 1
    49   23   24 ar
    50   23   26 1
    51   24   25 ar
    52   24   53 1
    53   25   54 1
    54   26   27 2
    55   26   28 2
    56   26   29 1
    57   29   55 1
    58   29   56 1
    59   29   57 1
@<TRIPOS>MOLECULE
CHEMBL1165042__1
   57    59     0     0     0
SMALL
USER_CHARGES

@<TRIPOS>ATOM
      1 C1         -0.5632    3.1205    1.1886 C.3       1 <0>        -0.1411
      2 C2         -0.3633    1.6535    0.8027 C.3       1 <0>        -0.0232
      3 C3          0.4044    1.5737   -0.5184 C.3       1 <0>        -0.1453
      4 C4          0.4203    0.9523    1.8822 C.2       1 <0>         0.0958
      5 C5          1.7752    0.9877    1.9100 C.2       1 <0>        -0.2757
      6 S1          2.1037    0.0119    3.3687 S.3       1 <0>         0.2116
      7 C6          0.5090   -0.3322    3.7823 C.2       1 <0>         0.2435
      8 N1         -0.1823    0.2810    2.8461 N.2       1 <0>        -0.5492
      9 N2          0.0368   -1.0791    4.8554 N.am      1 <0>        -0.6102
     10 C7          0.9051   -1.6335    5.7244 C.2       1 <0>         0.5201
     11 O1          2.0983   -1.4807    5.5702 O.2       1 <0>        -0.4858
     12 C8          0.3932   -2.4431    6.8878 C.3       1 <0>        -0.0664
     13 C9         -0.4163   -3.6316    6.3652 C.3       1 <0>        -0.1086
     14 C10        -1.0524   -4.3728    7.5428 C.3       1 <0>        -0.0896
     15 C11        -1.7558   -5.6349    7.0343 C.3       1 <0>        -0.1508
     16 C12        -2.4553   -6.3275    8.2068 C.3       1 <0>         0.0591
     17 O2         -3.3773   -5.4195    8.8132 O.3       1 <0>        -0.3813
     18 C13        -2.7698   -4.2423    9.3492 C.3       1 <0>         0.0593
     19 C14        -2.0829   -3.4660    8.2226 C.3       1 <0>        -0.1553
     20 C15         1.5581   -2.9471    7.7003 C.ar      1 <0>        -0.0149
     21 C16         2.4376   -3.8626    7.1533 C.ar      1 <0>        -0.1094
     22 C17         3.5062   -4.3249    7.8986 C.ar      1 <0>        -0.0207
     23 C18         3.6954   -3.8714    9.1906 C.ar      1 <0>        -0.6550
     24 C19         2.8164   -2.9553    9.7373 C.ar      1 <0>        -0.0217
     25 C20         1.7503   -2.4897    8.9905 C.ar      1 <0>        -0.1276
     26 S2          5.0567   -4.4616   10.1409 S.o2      1 <0>         2.4984
     27 O3          4.6402   -4.3279   11.4929 O.2       1 <0>        -0.9368
     28 O4          5.3513   -5.7408    9.5968 O.2       1 <0>        -0.9365
     29 C21         6.4088   -3.3054    9.7865 C.3       1 <0>        -0.6500
     30 H1          0.4082    3.6016    1.3032 H         1 <0>         0.0567
     31 H2         -1.1300    3.6276    0.4077 H         1 <0>         0.0633
     32 H3         -1.1101    3.1773    2.1297 H         1 <0>         0.0558
     33 H4         -1.3347    1.1724    0.6881 H         1 <0>         0.0858
     34 H5          1.3757    2.0548   -0.4038 H         1 <0>         0.0592
     35 H6          0.5467    0.5285   -0.7933 H         1 <0>         0.0575
     36 H7         -0.1624    2.0808   -1.2992 H         1 <0>         0.0644
     37 H8          2.4657    1.4722    1.2355 H         1 <0>         0.1946
     38 H9         -0.9175   -1.2012    4.9787 H         1 <0>         0.4246
     39 H10        -0.2429   -1.8175    7.5140 H         1 <0>         0.1222
     40 H11        -1.1986   -3.2724    5.6966 H         1 <0>         0.0786
     41 H12         0.2426   -4.3094    5.8224 H         1 <0>         0.0812
     42 H13        -0.2796   -4.6485    8.2605 H         1 <0>         0.0806
     43 H14        -2.4935   -5.3618    6.2798 H         1 <0>         0.0744
     44 H15        -1.0204   -6.3110    6.5981 H         1 <0>         0.0758
     45 H16        -2.9931   -7.2031    7.8434 H         1 <0>         0.0956
     46 H17        -1.7124   -6.6363    8.9422 H         1 <0>         0.0515
     47 H18        -3.5343   -3.6158    9.8088 H         1 <0>         0.0950
     48 H19        -2.0310   -4.5239   10.0996 H         1 <0>         0.0514
     49 H20        -1.5816   -2.5910    8.6362 H         1 <0>         0.0737
     50 H21        -2.8273   -3.1491    7.4921 H         1 <0>         0.0756
     51 H22         2.2898   -4.2169    6.1439 H         1 <0>         0.1303
     52 H23         4.1929   -5.0407    7.4715 H         1 <0>         0.1438
     53 H24         2.9640   -2.6012   10.7469 H         1 <0>         0.1445
     54 H25         1.0656   -1.7711    9.4163 H         1 <0>         0.1333
     55 H26         6.1144   -2.2994   10.0854 H         1 <0>         0.1319
     56 H27         7.2975   -3.6042   10.3424 H         1 <0>         0.1339
     57 H28         6.6270   -3.3179    8.7186 H         1 <0>         0.1323
@<TRIPOS>BOND
     1    1    2 1
     2    1   30 1
     3    1   31 1
     4    1   32 1
     5    2    3 1
     6    2    4 1
     7    2   33 1
     8    3   34 1
     9    3   35 1
    10    3   36 1
    11    4    8 1
    12    4    5 2
    13    5    6 1
    14    5   37 1
    15    6    7 1
    16    7    8 2
    17    7    9 1
    18    9   10 am
    19    9   38 1
    20   10   11 2
    21   10   12 1
    22   12   13 1
    23   12   20 1
    24   12   39 1
    25   13   14 1
    26   13   40 1
    27   13   41 1
    28   14   19 1
    29   14   15 1
    30   14   42 1
    31   15   16 1
    32   15   43 1
    33   15   44 1
    34   16   17 1
    35   16   45 1
    36   16   46 1
    37   17   18 1
    38   18   19 1
    39   18   47 1
    40   18   48 1
    41   19   49 1
    42   19   50 1
    43   20   25 ar
    44   20   21 ar
    45   21   22 ar
    46   21   51 1
    47   22   23 ar
    48   22   52 1
    49   23   24 ar
    50   23   26 1
    51   24   25 ar
    52   24   53 1
    53   25   54 1
    54   26   27 2
    55   26   28 2
    56   26   29 1
    57   29   55 1
    58   29   56 1
    59   29   57 1
@<TRIPOS>MOLECULE
CHEMBL381434
   50    51     0     0     0
SMALL
USER_CHARGES

@<TRIPOS>ATOM
      1 C1          0.1897    1.5233    0.3991 C.3       1 <0>        -0.1487
      2 C2          0.1872   -0.0059    0.3489 C.3       1 <0>        -0.0950
      3 C3         -1.2539   -0.5159    0.4136 C.3       1 <0>        -0.1467
      4 C4          0.8359   -0.4744   -0.9552 C.3       1 <0>         0.0617
      5 O1          2.2144   -0.0983   -0.9634 O.3       1 <0>        -0.3065
      6 C5          2.9412   -0.4419   -2.0593 C.ar      1 <0>         0.1652
      7 C6          4.2849   -0.1125   -2.1291 C.ar      1 <0>        -0.1604
      8 C7          5.0301   -0.4661   -3.2544 C.ar      1 <0>        -0.0476
      9 C8          4.4177   -1.1506   -4.3051 C.ar      1 <0>        -0.1293
     10 C9          3.0739   -1.4759   -4.2269 C.ar      1 <0>         0.1671
     11 C10         2.3377   -1.1269   -3.1037 C.ar      1 <0>        -0.2810
     12 O2          2.4764   -2.1424   -5.2496 O.3       1 <0>        -0.3023
     13 C11         1.1110   -2.5221   -5.0666 C.3       1 <0>         0.0749
     14 C12         0.4469   -2.7113   -6.4319 C.3       1 <0>        -0.1494
     15 C13         1.0473   -3.8343   -4.2823 C.3       1 <0>        -0.1812
     16 C14         6.4642   -0.1164   -3.3336 C.2       1 <0>         0.5461
     17 O3          7.1118   -0.4253   -4.3146 O.2       1 <0>        -0.4553
     18 N1          7.0536    0.5450   -2.3179 N.am      1 <0>        -0.6520
     19 C15         8.3693    0.9699   -2.4374 C.ar      1 <0>         0.3358
     20 C16         8.9341    1.7470   -1.4281 C.ar      1 <0>        -0.2169
     21 C17        10.2321    2.1644   -1.5482 C.ar      1 <0>        -0.0208
     22 C18        10.9523    1.7903   -2.6946 C.ar      1 <0>        -0.2058
     23 C19        10.3212    1.0094   -3.6665 C.ar      1 <0>         0.1548
     24 N2          9.0722    0.6259   -3.5076 N.ar      1 <0>        -0.4859
     25 C20        12.3511    2.2150   -2.8698 C.2       1 <0>         0.5269
     26 O4         12.8946    2.8989   -2.0133 O.co2     1 <0>        -0.6877
     27 O5         12.9699    1.8840   -3.8718 O.co2     1 <0>        -0.6838
     28 H1          1.2164    1.8866    0.3530 H         1 <0>         0.0645
     29 H2         -0.3729    1.9156   -0.4480 H         1 <0>         0.0539
     30 H3         -0.2724    1.8570    1.3282 H         1 <0>         0.0577
     31 H4          0.7498   -0.3982    1.1960 H         1 <0>         0.0832
     32 H5         -1.8165   -0.1236   -0.4335 H         1 <0>         0.0576
     33 H6         -1.2557   -1.6053    0.3778 H         1 <0>         0.0576
     34 H7         -1.7160   -0.1821    1.3427 H         1 <0>         0.0657
     35 H8          0.7546   -1.5587   -1.0323 H         1 <0>         0.0619
     36 H9          0.3277   -0.0109   -1.8008 H         1 <0>         0.0620
     37 H10         4.7549    0.4175   -1.3139 H         1 <0>         0.1364
     38 H11         4.9908   -1.4259   -5.1781 H         1 <0>         0.1485
     39 H12         1.2909   -1.3857   -3.0442 H         1 <0>         0.1388
     40 H13         0.5880   -1.7422   -4.5131 H         1 <0>         0.0717
     41 H14         0.9698   -3.4912   -6.9854 H         1 <0>         0.0695
     42 H15        -0.5946   -3.0009   -6.2923 H         1 <0>         0.0770
     43 H16         0.4923   -1.7765   -6.9907 H         1 <0>         0.0666
     44 H17         1.5702   -4.6142   -4.8358 H         1 <0>         0.0706
     45 H18         1.5204   -3.6995   -3.3096 H         1 <0>         0.0618
     46 H19         0.0058   -4.1239   -4.1427 H         1 <0>         0.0722
     47 H20         6.5582    0.7241   -1.5034 H         1 <0>         0.4130
     48 H21         8.3528    2.0179   -0.5591 H         1 <0>         0.1272
     49 H22        10.6918    2.7678   -0.7794 H         1 <0>         0.1406
     50 H23        10.8636    0.7152   -4.5528 H         1 <0>         0.1659
@<TRIPOS>BOND
     1    1    2 1
     2    1   28 1
     3    1   29 1
     4    1   30 1
     5    2    3 1
     6    2    4 1
     7    2   31 1
     8    3   32 1
     9    3   33 1
    10    3   34 1
    11    4    5 1
    12    4   35 1
    13    4   36 1
    14    5    6 1
    15    6   11 ar
    16    6    7 ar
    17    7    8 ar
    18    7   37 1
    19    8    9 ar
    20    8   16 1
    21    9   10 ar
    22    9   38 1
    23   10   11 ar
    24   10   12 1
    25   11   39 1
    26   12   13 1
    27   13   14 1
    28   13   15 1
    29   13   40 1
    30   14   41 1
    31   14   42 1
    32   14   43 1
    33   15   44 1
    34   15   45 1
    35   15   46 1
    36   16   17 2
    37   16   18 am
    38   18   19 1
    39   18   47 1
    40   19   24 ar
    41   19   20 ar
    42   20   21 ar
    43   20   48 1
    44   21   22 ar
    45   21   49 1
    46   22   23 ar
    47   22   25 1
    48   23   24 ar
    49   23   50 1
    50   25   26 2
    51   25   27 1
@<TRIPOS>MOLECULE
CHEMBL194499
   54    56     0     0     0
SMALL
USER_CHARGES

@<TRIPOS>ATOM
      1 C1          2.3889   -2.1577    0.9307 C.3       1 <0>        -0.1800
      2 C2          2.0981   -0.6940    1.2683 C.3       1 <0>         0.0714
      3 C3          2.8429    0.2134    0.2871 C.3       1 <0>        -0.1469
      4 O1          0.6932   -0.4521    1.1683 O.3       1 <0>        -0.3075
      5 C4         -0.0671   -0.7769    2.2469 C.ar      1 <0>         0.1680
      6 C5          0.5371   -1.2333    3.4069 C.ar      1 <0>        -0.1895
      7 C6         -0.2444   -1.5660    4.5137 C.ar      1 <0>        -0.0472
      8 C7         -1.6324   -1.4374    4.4469 C.ar      1 <0>        -0.1604
      9 C8         -2.2281   -0.9804    3.2833 C.ar      1 <0>         0.1657
     10 C9         -1.4467   -0.6456    2.1866 C.ar      1 <0>        -0.2246
     11 O2         -3.5798   -0.8547    3.2171 O.3       1 <0>        -0.3054
     12 C10        -4.1275   -0.3776    1.9865 C.3       1 <0>         0.0636
     13 C11        -5.6513   -0.3030    2.1014 C.3       1 <0>        -0.0919
     14 C12        -6.2434   -1.7235    2.2083 C.3       1 <0>        -0.1175
     15 C13        -7.5611   -1.6478    1.3977 C.3       1 <0>        -0.1276
     16 C14        -7.1782   -0.7337    0.2074 C.3       1 <0>        -0.1256
     17 C15        -6.2457    0.3264    0.8292 C.3       1 <0>        -0.1180
     18 C16         0.3960   -2.0539    5.7535 C.2       1 <0>         0.5452
     19 O3          1.6049   -2.1657    5.8097 O.2       1 <0>        -0.4590
     20 N1         -0.3608   -2.3748    6.8216 N.am      1 <0>        -0.6516
     21 C17         0.2440   -2.7275    8.0197 C.ar      1 <0>         0.3353
     22 C18        -0.5441   -2.9507    9.1470 C.ar      1 <0>        -0.2165
     23 C19         0.0550   -3.2989   10.3273 C.ar      1 <0>        -0.0207
     24 C20         1.4540   -3.4192   10.3582 C.ar      1 <0>        -0.2055
     25 C21         2.1807   -3.1803    9.1887 C.ar      1 <0>         0.1543
     26 N2          1.5628   -2.8525    8.0737 N.ar      1 <0>        -0.4862
     27 C22         2.1447   -3.7910   11.6042 C.2       1 <0>         0.5269
     28 O4          1.4996   -3.9977   12.6229 O.co2     1 <0>        -0.6872
     29 O5          3.3637   -3.8932   11.6208 O.co2     1 <0>        -0.6840
     30 H1          2.0551   -2.3695   -0.0850 H         1 <0>         0.0660
     31 H2          3.4604   -2.3422    1.0070 H         1 <0>         0.0753
     32 H3          1.8582   -2.8041    1.6298 H         1 <0>         0.0646
     33 H4          2.4318   -0.4822    2.2841 H         1 <0>         0.0810
     34 H5          2.5092    0.0015   -0.7287 H         1 <0>         0.0660
     35 H6          2.6358    1.2561    0.5276 H         1 <0>         0.0650
     36 H7          3.9145    0.0289    0.3634 H         1 <0>         0.0793
     37 H8          1.6116   -1.3318    3.4542 H         1 <0>         0.1475
     38 H9         -2.2411   -1.6942    5.3012 H         1 <0>         0.1363
     39 H10        -1.9143   -0.2856    1.2821 H         1 <0>         0.1386
     40 H11        -3.7302    0.6147    1.7724 H         1 <0>         0.0642
     41 H12        -3.8569   -1.0590    1.1799 H         1 <0>         0.0655
     42 H13        -5.9312    0.2857    2.9750 H         1 <0>         0.0847
     43 H14        -5.5652   -2.4536    1.7666 H         1 <0>         0.0677
     44 H15        -6.4495   -1.9735    3.2490 H         1 <0>         0.0705
     45 H16        -7.8557   -2.6366    1.0462 H         1 <0>         0.0668
     46 H17        -8.3549   -1.1956    1.9923 H         1 <0>         0.0675
     47 H18        -6.6510   -1.3040   -0.5574 H         1 <0>         0.0658
     48 H19        -8.0665   -0.2614   -0.2120 H         1 <0>         0.0661
     49 H20        -6.8147    1.2200    1.0855 H         1 <0>         0.0704
     50 H21        -5.4485    0.5787    0.1299 H         1 <0>         0.0667
     51 H22        -1.3282   -2.3592    6.7528 H         1 <0>         0.4133
     52 H23        -1.6178   -2.8496    9.0899 H         1 <0>         0.1275
     53 H24        -0.5345   -3.4768   11.2146 H         1 <0>         0.1408
     54 H25         3.2570   -3.2691    9.1989 H         1 <0>         0.1657
@<TRIPOS>BOND
     1    1    2 1
     2    1   30 1
     3    1   31 1
     4    1   32 1
     5    2    3 1
     6    2    4 1
     7    2   33 1
     8    3   34 1
     9    3   35 1
    10    3   36 1
    11    4    5 1
    12    5   10 ar
    13    5    6 ar
    14    6    7 ar
    15    6   37 1
    16    7    8 ar
    17    7   18 1
    18    8    9 ar
    19    8   38 1
    20    9   10 ar
    21    9   11 1
    22   10   39 1
    23   11   12 1
    24   12   13 1
    25   12   40 1
    26   12   41 1
    27   13   17 1
    28   13   14 1
    29   13   42 1
    30   14   15 1
    31   14   43 1
    32   14   44 1
    33   15   16 1
    34   15   45 1
    35   15   46 1
    36   16   17 1
    37   16   47 1
    38   16   48 1
    39   17   49 1
    40   17   50 1
    41   18   19 2
    42   18   20 am
    43   20   21 1
    44   20   51 1
    45   21   26 ar
    46   21   22 ar
    47   22   23 ar
    48   22   52 1
    49   23   24 ar
    50   23   53 1
    51   24   25 ar
    52   24   27 1
    53   25   26 ar
    54   25   54 1
    55   27   28 2
    56   27   29 1
@<TRIPOS>MOLECULE
CHEMBL551977
   53    55     0     0     0
SMALL
USER_CHARGES

@<TRIPOS>ATOM
      1 C1         -0.3037   -2.2455    2.4877 C.3       1 <0>        -0.1766
      2 C2          0.0908   -0.7692    2.4106 C.3       1 <0>         0.0786
      3 C3         -1.1549    0.1014    2.5872 C.3       1 <0>        -0.1191
      4 C4         -0.7448    1.5747    2.6350 C.3       1 <0>         0.0736
      5 O1         -1.9083    2.3878    2.7999 O.3       1 <0>        -0.5733
      6 O2          0.6834   -0.5003    1.1384 O.3       1 <0>        -0.2980
      7 C5          2.0382   -0.5752    1.0606 C.ar      1 <0>         0.1502
      8 C6          2.7692   -1.0295    2.1461 C.ar      1 <0>        -0.1453
      9 C7          4.1600   -1.1064    2.0650 C.ar      1 <0>        -0.0748
     10 C8          4.8086   -0.7250    0.8898 C.ar      1 <0>        -0.1268
     11 C9          4.0700   -0.2720   -0.1908 C.ar      1 <0>         0.1169
     12 C10         2.6864   -0.2021   -0.1076 C.ar      1 <0>        -0.1400
     13 O3          4.7006    0.1000   -1.3356 O.3       1 <0>        -0.2446
     14 C11         4.8151    1.4284   -1.5981 C.ar      1 <0>         0.1735
     15 C12         4.2153    2.3568   -0.7592 C.ar      1 <0>        -0.2162
     16 C13         4.3332    3.7066   -1.0283 C.ar      1 <0>         0.0167
     17 C14         5.0477    4.1327   -2.1327 C.ar      1 <0>        -0.6918
     18 C15         5.6459    3.2096   -2.9705 C.ar      1 <0>         0.0147
     19 C16         5.5366    1.8590   -2.7023 C.ar      1 <0>        -0.1605
     20 S1          5.1956    5.8551   -2.4734 S.o2      1 <0>         2.5031
     21 O4          5.4008    5.9307   -3.8775 O.2       1 <0>        -0.9362
     22 O5          4.0478    6.4428   -1.8764 O.2       1 <0>        -0.9373
     23 C17         6.6938    6.3773   -1.5941 C.3       1 <0>        -0.6511
     24 C18         4.9441   -1.5900    3.2210 C.2       1 <0>         0.5580
     25 O6          4.3774   -1.9214    4.2441 O.2       1 <0>        -0.4556
     26 N1          6.2875   -1.6636    3.1407 N.am      1 <0>        -0.6179
     27 C19         7.0243   -2.1180    4.2269 C.2       1 <0>         0.2670
     28 N2          6.5869   -2.5207    5.4006 N.2       1 <0>        -0.5200
     29 C20         7.4233   -2.9275    6.3374 C.2       1 <0>         0.0619
     30 C21         8.7445   -2.9103    6.0337 C.2       1 <0>        -0.2396
     31 S2          8.6929   -2.2942    4.3587 S.3       1 <0>         0.1155
     32 H1          0.5837   -2.8657    2.3619 H         1 <0>         0.0658
     33 H2         -0.7557   -2.4506    3.4582 H         1 <0>         0.0797
     34 H3         -1.0201   -2.4718    1.6981 H         1 <0>         0.0729
     35 H4          0.8072   -0.5429    3.2003 H         1 <0>         0.0833
     36 H5         -1.8328   -0.0600    1.7492 H         1 <0>         0.0859
     37 H6         -1.6565   -0.1664    3.5172 H         1 <0>         0.0945
     38 H7         -0.0669    1.7361    3.4731 H         1 <0>         0.0445
     39 H8         -0.2432    1.8425    1.7051 H         1 <0>         0.0514
     40 H9         -1.7231    3.3362    2.8385 H         1 <0>         0.3835
     41 H10         2.2634   -1.3233    3.0539 H         1 <0>         0.1551
     42 H11         5.8850   -0.7827    0.8230 H         1 <0>         0.1394
     43 H12         2.1131    0.1473   -0.9535 H         1 <0>         0.1499
     44 H13         3.6566    2.0244    0.1032 H         1 <0>         0.1395
     45 H14         3.8666    4.4296   -0.3757 H         1 <0>         0.1471
     46 H15         6.2031    3.5451   -3.8327 H         1 <0>         0.1532
     47 H16         6.0081    1.1385   -3.3543 H         1 <0>         0.1464
     48 H17         7.5498    5.8169   -1.9701 H         1 <0>         0.1320
     49 H18         6.8575    7.4427   -1.7560 H         1 <0>         0.1338
     50 H19         6.5745    6.1860   -0.5276 H         1 <0>         0.1309
     51 H20         6.7397   -1.3992    2.3244 H         1 <0>         0.4260
     52 H21         7.0709   -3.2590    7.3030 H         1 <0>         0.1782
     53 H22         9.5939   -3.1943    6.6373 H         1 <0>         0.2015
@<TRIPOS>BOND
     1    1    2 1
     2    1   32 1
     3    1   33 1
     4    1   34 1
     5    2    3 1
     6    2    6 1
     7    2   35 1
     8    3    4 1
     9    3   36 1
    10    3   37 1
    11    4    5 1
    12    4   38 1
    13    4   39 1
    14    5   40 1
    15    6    7 1
    16    7   12 ar
    17    7    8 ar
    18    8    9 ar
    19    8   41 1
    20    9   10 ar
    21    9   24 1
    22   10   11 ar
    23   10   42 1
    24   11   12 ar
    25   11   13 1
    26   12   43 1
    27   13   14 1
    28   14   19 ar
    29   14   15 ar
    30   15   16 ar
    31   15   44 1
    32   16   17 ar
    33   16   45 1
    34   17   18 ar
    35   17   20 1
    36   18   19 ar
    37   18   46 1
    38   19   47 1
    39   20   21 2
    40   20   22 2
    41   20   23 1
    42   23   48 1
    43   23   49 1
    44   23   50 1
    45   24   25 2
    46   24   26 am
    47   26   27 1
    48   26   51 1
    49   27   31 1
    50   27   28 2
    51   28   29 1
    52   29   30 2
    53   29   52 1
    54   30   31 1
    55   30   53 1
@<TRIPOS>MOLECULE
CHEMBL551977__1
   53    55     0     0     0
SMALL
USER_CHARGES

@<TRIPOS>ATOM
      1 C1         -1.9245   -2.1415    1.5885 C.3       1 <0>        -0.1809
      2 C2         -2.1084   -0.6799    1.1753 C.3       1 <0>         0.0800
      3 C3         -1.6485    0.2336    2.3133 C.3       1 <0>        -0.1155
      4 C4         -1.9474    1.6897    1.9510 C.3       1 <0>         0.0733
      5 O1         -1.5178    2.5428    3.0138 O.3       1 <0>        -0.5740
      6 O2         -1.3302   -0.4137    0.0067 O.3       1 <0>        -0.2986
      7 C5         -1.8774   -0.7544   -1.1898 C.ar      1 <0>         0.1511
      8 C6         -3.1682   -1.2543   -1.2427 C.ar      1 <0>        -0.1449
      9 C7         -3.7293   -1.6033   -2.4715 C.ar      1 <0>        -0.0752
     10 C8         -2.9868   -1.4469   -3.6427 C.ar      1 <0>        -0.1272
     11 C9         -1.6968   -0.9463   -3.5807 C.ar      1 <0>         0.1166
     12 C10        -1.1446   -0.5955   -2.3567 C.ar      1 <0>        -0.1393
     13 O3         -0.9726   -0.7940   -4.7205 O.3       1 <0>        -0.2451
     14 C11        -0.0013   -1.7064   -4.9859 C.ar      1 <0>         0.1733
     15 C12         0.2861   -2.7035   -4.0646 C.ar      1 <0>        -0.2157
     16 C13         1.2740   -3.6298   -4.3368 C.ar      1 <0>         0.0170
     17 C14         1.9766   -3.5638   -5.5259 C.ar      1 <0>        -0.6918
     18 C15         1.6925   -2.5710   -6.4455 C.ar      1 <0>         0.0145
     19 C16         0.7010   -1.6462   -6.1811 C.ar      1 <0>        -0.1608
     20 S1          3.2365   -4.7466   -5.8698 S.o2      1 <0>         2.5032
     21 O4          4.1193   -4.0858   -6.7660 O.2       1 <0>        -0.9364
     22 O5          3.6884   -5.1765   -4.5930 O.2       1 <0>        -0.9370
     23 C17         2.3831   -6.1030   -6.7198 C.3       1 <0>        -0.6510
     24 C18        -5.1062   -2.1377   -2.5327 C.2       1 <0>         0.5581
     25 O6         -5.7513   -2.2736   -1.5114 O.2       1 <0>        -0.4557
     26 N1         -5.6463   -2.4742   -3.7207 N.am      1 <0>        -0.6179
     27 C19        -6.9401   -2.9763   -3.7782 C.2       1 <0>         0.2670
     28 N2         -7.7810   -3.1844   -2.7880 N.2       1 <0>        -0.5200
     29 C20        -8.9879   -3.6716   -3.0089 C.2       1 <0>         0.0619
     30 C21        -9.3160   -3.9449   -4.2956 C.2       1 <0>        -0.2397
     31 S2         -7.8153   -3.4593   -5.1321 S.3       1 <0>         0.1156
     32 H1         -2.5181   -2.3445    2.4799 H         1 <0>         0.0800
     33 H2         -2.2521   -2.7923    0.7778 H         1 <0>         0.0653
     34 H3         -0.8722   -2.3290    1.8023 H         1 <0>         0.0732
     35 H4         -3.1606   -0.4924    0.9616 H         1 <0>         0.0816
     36 H5         -2.1798   -0.0297    3.2279 H         1 <0>         0.0952
     37 H6         -0.5765    0.1102    2.4676 H         1 <0>         0.0859
     38 H7         -1.4160    1.9529    1.0364 H         1 <0>         0.0526
     39 H8         -3.0193    1.8130    1.7967 H         1 <0>         0.0452
     40 H9         -1.6765    3.4829    2.8522 H         1 <0>         0.3834
     41 H10        -3.7394   -1.3742   -0.3339 H         1 <0>         0.1549
     42 H11        -3.4172   -1.7162   -4.5959 H         1 <0>         0.1393
     43 H12        -0.1402   -0.2012   -2.3123 H         1 <0>         0.1498
     44 H13        -0.2619   -2.7550   -3.1354 H         1 <0>         0.1398
     45 H14         1.4981   -4.4060   -3.6201 H         1 <0>         0.1475
     46 H15         2.2429   -2.5215   -7.3733 H         1 <0>         0.1531
     47 H16         0.4762   -0.8739   -6.9017 H         1 <0>         0.1462
     48 H17         1.9230   -5.7268   -7.6335 H         1 <0>         0.1319
     49 H18         3.1011   -6.8841   -6.9695 H         1 <0>         0.1337
     50 H19         1.6124   -6.5130   -6.0671 H         1 <0>         0.1310
     51 H20        -5.1315   -2.3657   -4.5357 H         1 <0>         0.4260
     52 H21        -9.6828   -3.8450   -2.2006 H         1 <0>         0.1782
     53 H22       -10.2336   -4.3432   -4.7028 H         1 <0>         0.2015
@<TRIPOS>BOND
     1    1    2 1
     2    1   32 1
     3    1   33 1
     4    1   34 1
     5    2    3 1
     6    2    6 1
     7    2   35 1
     8    3    4 1
     9    3   36 1
    10    3   37 1
    11    4    5 1
    12    4   38 1
    13    4   39 1
    14    5   40 1
    15    6    7 1
    16    7   12 ar
    17    7    8 ar
    18    8    9 ar
    19    8   41 1
    20    9   10 ar
    21    9   24 1
    22   10   11 ar
    23   10   42 1
    24   11   12 ar
    25   11   13 1
    26   12   43 1
    27   13   14 1
    28   14   19 ar
    29   14   15 ar
    30   15   16 ar
    31   15   44 1
    32   16   17 ar
    33   16   45 1
    34   17   18 ar
    35   17   20 1
    36   18   19 ar
    37   18   46 1
    38   19   47 1
    39   20   21 2
    40   20   22 2
    41   20   23 1
    42   23   48 1
    43   23   49 1
    44   23   50 1
    45   24   25 2
    46   24   26 am
    47   26   27 1
    48   26   51 1
    49   27   31 1
    50   27   28 2
    51   28   29 1
    52   29   30 2
    53   29   52 1
    54   30   31 1
    55   30   53 1
@<TRIPOS>MOLECULE
CHEMBL561283
   52    56     0     0     0
SMALL
USER_CHARGES

@<TRIPOS>ATOM
      1 C1         -0.5967    1.4728   -0.5314 C.3       1 <0>        -0.1710
      2 C2         -0.4529   -0.0244   -0.4373 C.2       1 <0>         0.5222
      3 O1          0.6037   -0.5507   -0.7155 O.2       1 <0>        -0.5291
      4 N1         -1.4984   -0.7784   -0.0439 N.am      1 <0>        -0.6203
      5 C3         -2.8354   -0.2723    0.3163 C.3       1 <0>         0.0970
      6 C4         -3.7894   -1.4699    0.0809 C.3       1 <0>        -0.1334
      7 C5         -2.9111   -2.6630    0.5417 C.3       1 <0>        -0.1213
      8 C6         -1.4964   -2.2424    0.0911 C.3       1 <0>         0.1870
      9 C7         -0.4858   -2.6601    1.1280 C.ar      1 <0>        -0.0763
     10 C8         -0.1018   -1.7698    2.1074 C.ar      1 <0>        -0.0581
     11 C9          0.8284   -2.1515    3.0641 C.ar      1 <0>         0.0351
     12 C10         1.3784   -3.4459    3.0337 C.ar      1 <0>         0.0874
     13 C11         0.9803   -4.3398    2.0339 C.ar      1 <0>        -0.1423
     14 C12         0.0498   -3.9450    1.0938 C.ar      1 <0>         0.1280
     15 O2         -0.3421   -4.8145    0.1249 O.3       1 <0>        -0.2505
     16 C13         0.2012   -6.0600    0.1277 C.ar      1 <0>         0.1129
     17 C14        -0.4117   -7.0839    0.8364 C.ar      1 <0>        -0.1337
     18 C15         0.1415   -8.3495    0.8385 C.ar      1 <0>        -0.0761
     19 C16         1.3057   -8.5982    0.1353 C.ar      1 <0>        -0.1498
     20 C17         1.9201   -7.5791   -0.5730 C.ar      1 <0>         0.1152
     21 C18         1.3659   -6.3111   -0.5823 C.ar      1 <0>        -0.1612
     22 F1          3.0578   -7.8240   -1.2591 F         1 <0>        -0.1322
     23 N2          2.2441   -3.5374    4.0713 N.2       1 <0>        -0.4729
     24 C19         2.2649   -2.4048    4.7291 C.2       1 <0>         0.3364
     25 N3          1.4056   -1.5138    4.1457 N.pl3     1 <0>        -0.5752
     26 H1          1.2339   -0.6046    4.4368 H         1 <0>         0.4302
     27 C20         3.0928   -2.1302    5.9247 C.ar      1 <0>         0.1790
     28 C21         3.9370   -3.1215    6.4238 C.ar      1 <0>        -0.1173
     29 C22         4.7056   -2.8493    7.5426 C.ar      1 <0>        -0.0736
     30 C23         4.6050   -1.5944    8.1260 C.ar      1 <0>        -0.1569
     31 C24         3.7465   -0.6578    7.5780 C.ar      1 <0>         0.1064
     32 N4          3.0300   -0.9403    6.5101 N.ar      1 <0>        -0.4790
     33 H2          0.3458    1.9082   -0.8634 H         1 <0>         0.0929
     34 H3         -1.3821    1.7181   -1.2464 H         1 <0>         0.0887
     35 H4         -0.8579    1.8750    0.4474 H         1 <0>         0.0861
     36 H5         -2.8573    0.0300    1.3633 H         1 <0>         0.0707
     37 H6         -3.1104    0.5638   -0.3267 H         1 <0>         0.0809
     38 H7         -4.6847   -1.3831    0.6965 H         1 <0>         0.0880
     39 H8         -4.0496   -1.5607   -0.9737 H         1 <0>         0.0800
     40 H9         -2.9562   -2.7795    1.6245 H         1 <0>         0.0803
     41 H10        -3.2155   -3.5821    0.0408 H         1 <0>         0.0897
     42 H11        -1.2586   -2.7027   -0.8679 H         1 <0>         0.0945
     43 H12        -0.5241   -0.7760    2.1302 H         1 <0>         0.1283
     44 H13         1.3958   -5.3361    2.0006 H         1 <0>         0.1381
     45 H14        -1.3209   -6.8911    1.3864 H         1 <0>         0.1398
     46 H15        -0.3357   -9.1458    1.3904 H         1 <0>         0.1432
     47 H16         1.7367   -9.5884    0.1387 H         1 <0>         0.1424
     48 H17         1.8422   -5.5170   -1.1381 H         1 <0>         0.1451
     49 H18         3.9902   -4.0879    5.9447 H         1 <0>         0.1518
     50 H19         5.3684   -3.5971    7.9523 H         1 <0>         0.1452
     51 H20         5.1911   -1.3511    8.9999 H         1 <0>         0.1430
     52 H21         3.6659    0.3196    8.0302 H         1 <0>         0.1649
@<TRIPOS>BOND
     1    1    2 1
     2    1   33 1
     3    1   34 1
     4    1   35 1
     5    2    3 2
     6    2    4 am
     7    4    8 1
     8    4    5 1
     9    5    6 1
    10    5   36 1
    11    5   37 1
    12    6    7 1
    13    6   38 1
    14    6   39 1
    15    7    8 1
    16    7   40 1
    17    7   41 1
    18    8    9 1
    19    8   42 1
    20    9   14 ar
    21    9   10 ar
    22   10   11 ar
    23   10   43 1
    24   11   25 1
    25   11   12 ar
    26   12   13 ar
    27   12   23 1
    28   13   14 ar
    29   13   44 1
    30   14   15 1
    31   15   16 1
    32   16   21 ar
    33   16   17 ar
    34   17   18 ar
    35   17   45 1
    36   18   19 ar
    37   18   46 1
    38   19   20 ar
    39   19   47 1
    40   20   21 ar
    41   20   22 1
    42   21   48 1
    43   23   24 2
    44   24   25 1
    45   24   27 1
    46   25   26 1
    47   27   32 ar
    48   27   28 ar
    49   28   29 ar
    50   28   49 1
    51   29   30 ar
    52   29   50 1
    53   30   31 ar
    54   30   51 1
    55   31   32 ar
    56   31   52 1
@<TRIPOS>MOLECULE
CHEMBL561283__1
   52    56     0     0     0
SMALL
USER_CHARGES

@<TRIPOS>ATOM
      1 C1          0.3220    1.4661   -0.4740 C.3       1 <0>        -0.1714
      2 C2          0.2700   -0.0387   -0.4127 C.2       1 <0>         0.5217
      3 O1          1.2468   -0.6920   -0.7127 O.2       1 <0>        -0.5293
      4 N1         -0.8620   -0.6587   -0.0245 N.am      1 <0>        -0.6203
      5 C3         -2.1189    0.0092    0.3599 C.3       1 <0>         0.0970
      6 C4         -2.8457   -1.0091    1.2734 C.3       1 <0>        -0.1331
      7 C5         -2.4872   -2.3540    0.5878 C.3       1 <0>        -0.1213
      8 C6         -1.0500   -2.1131    0.0798 C.3       1 <0>         0.1878
      9 C7         -0.8678   -2.7517   -1.2730 C.ar      1 <0>        -0.0776
     10 C8         -0.9471   -1.9787   -2.4112 C.ar      1 <0>        -0.0558
     11 C9         -0.7794   -2.5637   -3.6586 C.ar      1 <0>         0.0351
     12 C10        -0.5288   -3.9442   -3.7604 C.ar      1 <0>         0.0873
     13 C11        -0.4511   -4.7174   -2.5973 C.ar      1 <0>        -0.1428
     14 C12        -0.6148   -4.1179   -1.3646 C.ar      1 <0>         0.1274
     15 O2         -0.5341   -4.8672   -0.2331 O.3       1 <0>        -0.2503
     16 C13        -0.2826   -6.1961   -0.3645 C.ar      1 <0>         0.1128
     17 C14         1.0261   -6.6583   -0.3717 C.ar      1 <0>        -0.1330
     18 C15         1.2804   -8.0094   -0.5055 C.ar      1 <0>        -0.0753
     19 C16         0.2327   -8.9026   -0.6322 C.ar      1 <0>        -0.1496
     20 C17        -1.0743   -8.4451   -0.6255 C.ar      1 <0>         0.1140
     21 C18        -1.3336   -7.0930   -0.4860 C.ar      1 <0>        -0.1614
     22 F1         -2.0966   -9.3196   -0.7499 F         1 <0>        -0.1327
     23 N2         -0.4100   -4.2332   -5.0783 N.2       1 <0>        -0.4730
     24 C19        -0.5681   -3.1415   -5.7850 C.2       1 <0>         0.3363
     25 N3         -0.7993   -2.0800   -4.9529 N.pl3     1 <0>        -0.5749
     26 H1         -0.9492   -1.1600   -5.2215 H         1 <0>         0.4302
     27 C20        -0.5051   -3.0673   -7.2617 C.ar      1 <0>         0.1790
     28 C21        -0.2672   -4.2242   -8.0029 C.ar      1 <0>        -0.1173
     29 C22        -0.2115   -4.1386   -9.3834 C.ar      1 <0>        -0.0736
     30 C23        -0.3957   -2.8986   -9.9782 C.ar      1 <0>        -0.1569
     31 C24        -0.6279   -1.7913   -9.1815 C.ar      1 <0>         0.1064
     32 N4         -0.6810   -1.9006   -7.8705 N.ar      1 <0>        -0.4790
     33 H2          1.3108    1.7823   -0.8065 H         1 <0>         0.0931
     34 H3         -0.4299    1.8274   -1.1755 H         1 <0>         0.0861
     35 H4          0.1228    1.8772    0.5157 H         1 <0>         0.0890
     36 H5         -1.9083    0.9276    0.9078 H         1 <0>         0.0812
     37 H6         -2.7204    0.2230   -0.5236 H         1 <0>         0.0708
     38 H7         -2.4533   -0.9719    2.2896 H         1 <0>         0.0800
     39 H8         -3.9227   -0.8415    1.2658 H         1 <0>         0.0880
     40 H9         -2.5124   -3.1724    1.3072 H         1 <0>         0.0903
     41 H10        -3.1593   -2.5523   -0.2472 H         1 <0>         0.0794
     42 H11        -0.3337   -2.5296    0.7881 H         1 <0>         0.0942
     43 H12        -1.1400   -0.9189   -2.3326 H         1 <0>         0.1277
     44 H13        -0.2591   -5.7782   -2.6632 H         1 <0>         0.1382
     45 H14         1.8455   -5.9617   -0.2732 H         1 <0>         0.1402
     46 H15         2.2990   -8.3684   -0.5113 H         1 <0>         0.1432
     47 H16         0.4340   -9.9585   -0.7370 H         1 <0>         0.1424
     48 H17        -2.3528   -6.7361   -0.4762 H         1 <0>         0.1448
     49 H18        -0.1279   -5.1734   -7.5069 H         1 <0>         0.1518
     50 H19        -0.0286   -5.0173   -9.9841 H         1 <0>         0.1452
     51 H20        -0.3578   -2.7985  -11.0528 H         1 <0>         0.1429
     52 H21        -0.7712   -0.8248   -9.6416 H         1 <0>         0.1649
@<TRIPOS>BOND
     1    1    2 1
     2    1   33 1
     3    1   34 1
     4    1   35 1
     5    2    3 2
     6    2    4 am
     7    4    8 1
     8    4    5 1
     9    5    6 1
    10    5   36 1
    11    5   37 1
    12    6    7 1
    13    6   38 1
    14    6   39 1
    15    7    8 1
    16    7   40 1
    17    7   41 1
    18    8    9 1
    19    8   42 1
    20    9   14 ar
    21    9   10 ar
    22   10   11 ar
    23   10   43 1
    24   11   25 1
    25   11   12 ar
    26   12   13 ar
    27   12   23 1
    28   13   14 ar
    29   13   44 1
    30   14   15 1
    31   15   16 1
    32   16   21 ar
    33   16   17 ar
    34   17   18 ar
    35   17   45 1
    36   18   19 ar
    37   18   46 1
    38   19   20 ar
    39   19   47 1
    40   20   21 ar
    41   20   22 1
    42   21   48 1
    43   23   24 2
    44   24   25 1
    45   24   27 1
    46   25   26 1
    47   27   32 ar
    48   27   28 ar
    49   28   29 ar
    50   28   49 1
    51   29   30 ar
    52   29   50 1
    53   30   31 ar
    54   30   51 1
    55   31   32 ar
    56   31   52 1
@<TRIPOS>MOLECULE
CHEMBL205816
   57    59     0     0     0
SMALL
USER_CHARGES

@<TRIPOS>ATOM
      1 C1         -1.5311   -2.4924    1.0501 C.3       1 <0>        -0.1805
      2 C2         -1.6840   -1.0154    0.6813 C.3       1 <0>         0.0826
      3 H1         -2.7428   -0.7666    0.6093 H         1 <0>         0.0820
      4 C3         -1.0290   -0.1500    1.7597 C.3       1 <0>        -0.0745
      5 C4         -1.2855    1.3047    1.4609 C.ar      1 <0>        -0.0865
      6 C5         -0.3998    2.0149    0.6722 C.ar      1 <0>        -0.1020
      7 C6         -0.6351    3.3492    0.3981 C.ar      1 <0>        -0.1222
      8 C7         -1.7563    3.9732    0.9122 C.ar      1 <0>        -0.1225
      9 C8         -2.6425    3.2627    1.7002 C.ar      1 <0>        -0.1191
     10 C9         -2.4095    1.9273    1.9708 C.ar      1 <0>        -0.1163
     11 O1         -1.0506   -0.7703   -0.5759 O.3       1 <0>        -0.3011
     12 C10        -1.7687   -1.0541   -1.6944 C.ar      1 <0>         0.1712
     13 C11        -3.0827   -1.4784   -1.5835 C.ar      1 <0>        -0.1892
     14 C12        -3.8191   -1.7690   -2.7323 C.ar      1 <0>        -0.0470
     15 C13        -3.2278   -1.6306   -3.9889 C.ar      1 <0>        -0.1625
     16 C14        -1.9136   -1.2058   -4.0905 C.ar      1 <0>         0.1670
     17 C15        -1.1866   -0.9128   -2.9455 C.ar      1 <0>        -0.2259
     18 O2         -1.3368   -1.0707   -5.3137 O.3       1 <0>        -0.3035
     19 C16         0.0449   -0.7073   -5.3428 C.3       1 <0>         0.0738
     20 C17         0.9054   -1.9590   -5.1596 C.3       1 <0>        -0.1806
     21 C18         0.3725   -0.0555   -6.6877 C.3       1 <0>        -0.1488
     22 C19        -5.2214   -2.2225   -2.6189 C.2       1 <0>         0.5461
     23 O3         -5.7345   -2.3428   -1.5237 O.2       1 <0>        -0.4602
     24 N1         -5.9310   -2.5027   -3.7299 N.am      1 <0>        -0.6520
     25 C20        -7.2768   -2.8261   -3.6305 C.ar      1 <0>         0.3360
     26 C21        -7.9727   -3.2263   -4.7695 C.ar      1 <0>        -0.2167
     27 C22        -9.2999   -3.5451   -4.6686 C.ar      1 <0>        -0.0206
     28 C23        -9.9160   -3.4561   -3.4095 C.ar      1 <0>        -0.2055
     29 C24        -9.1559   -3.0474   -2.3105 C.ar      1 <0>         0.1546
     30 N2         -7.8804   -2.7551   -2.4522 N.ar      1 <0>        -0.4869
     31 C25       -11.3415   -3.7881   -3.2501 C.2       1 <0>         0.5268
     32 O4        -11.9986   -4.1446   -4.2185 O.co2     1 <0>        -0.6873
     33 O5        -11.8690   -3.7075   -2.1493 O.co2     1 <0>        -0.6840
     34 H2         -2.0143   -2.6793    2.0091 H         1 <0>         0.0761
     35 H3         -1.9978   -3.1089    0.2819 H         1 <0>         0.0670
     36 H4         -0.4724   -2.7411    1.1222 H         1 <0>         0.0676
     37 H5         -1.4510   -0.4009    2.7329 H         1 <0>         0.0950
     38 H6          0.0452   -0.3347    1.7710 H         1 <0>         0.0844
     39 H7          0.4762    1.5273    0.2705 H         1 <0>         0.1214
     40 H8          0.0573    3.9042   -0.2175 H         1 <0>         0.1195
     41 H9         -1.9397    5.0158    0.6987 H         1 <0>         0.1196
     42 H10        -3.5183    3.7503    2.1022 H         1 <0>         0.1217
     43 H11        -3.1038    1.3713    2.5833 H         1 <0>         0.1221
     44 H12        -3.5363   -1.5845   -0.6091 H         1 <0>         0.1462
     45 H13        -3.7942   -1.8548   -4.8807 H         1 <0>         0.1354
     46 H14        -0.1632   -0.5779   -3.0286 H         1 <0>         0.1407
     47 H15         0.2523   -0.0027   -4.5375 H         1 <0>         0.0764
     48 H16         0.6980   -2.6636   -5.9649 H         1 <0>         0.0683
     49 H17         1.9593   -1.6818   -5.1818 H         1 <0>         0.0721
     50 H18         0.6720   -2.4233   -4.2014 H         1 <0>         0.0638
     51 H19        -0.2406    0.8362   -6.8182 H         1 <0>         0.0660
     52 H20         1.4264    0.2217   -6.7099 H         1 <0>         0.0771
     53 H21         0.1651   -0.7601   -7.4931 H         1 <0>         0.0681
     54 H22        -5.5010   -2.4783   -4.5991 H         1 <0>         0.4132
     55 H23        -7.4694   -3.2840   -5.7234 H         1 <0>         0.1274
     56 H24        -9.8606   -3.8575   -5.5371 H         1 <0>         0.1407
     57 H25        -9.6175   -2.9745   -1.3369 H         1 <0>         0.1656
@<TRIPOS>BOND
     1    1    2 1
     2    1   34 1
     3    1   35 1
     4    1   36 1
     5    2    3 1
     6    2    4 1
     7    2   11 1
     8    4    5 1
     9    4   37 1
    10    4   38 1
    11    5   10 ar
    12    5    6 ar
    13    6    7 ar
    14    6   39 1
    15    7    8 ar
    16    7   40 1
    17    8    9 ar
    18    8   41 1
    19    9   10 ar
    20    9   42 1
    21   10   43 1
    22   11   12 1
    23   12   17 ar
    24   12   13 ar
    25   13   14 ar
    26   13   44 1
    27   14   15 ar
    28   14   22 1
    29   15   16 ar
    30   15   45 1
    31   16   17 ar
    32   16   18 1
    33   17   46 1
    34   18   19 1
    35   19   20 1
    36   19   21 1
    37   19   47 1
    38   20   48 1
    39   20   49 1
    40   20   50 1
    41   21   51 1
    42   21   52 1
    43   21   53 1
    44   22   23 2
    45   22   24 am
    46   24   25 1
    47   24   54 1
    48   25   30 ar
    49   25   26 ar
    50   26   27 ar
    51   26   55 1
    52   27   28 ar
    53   27   56 1
    54   28   29 ar
    55   28   31 1
    56   29   30 ar
    57   29   57 1
    58   31   32 2
    59   31   33 1
@<TRIPOS>MOLECULE
CHEMBL541979
   40    42     0     0     0
SMALL
USER_CHARGES

@<TRIPOS>ATOM
      1 C1          0.6716    0.5207    1.0952 C.ar      1 <0>        -0.1087
      2 C2          1.9123    1.1262    1.0472 C.ar      1 <0>        -0.0480
      3 C3          2.6498    1.1040   -0.1224 C.ar      1 <0>        -0.1316
      4 C4          2.1460    0.4746   -1.2499 C.ar      1 <0>         0.1420
      5 C5          0.9043   -0.1329   -1.2063 C.ar      1 <0>        -0.1512
      6 C6          0.1637   -0.1113   -0.0320 C.ar      1 <0>         0.2074
      7 N1         -1.0933   -0.7252    0.0152 N.am      1 <0>        -0.5785
      8 C7         -1.2028   -2.1807   -0.1109 C.3       1 <0>         0.1054
      9 C8         -1.2504   -2.8112    1.2824 C.3       1 <0>        -0.1182
     10 C9          0.1134   -2.6458    1.9842 C.3       1 <0>        -0.1158
     11 C10         0.2984   -3.9670    2.7710 C.3       1 <0>        -0.1262
     12 C11        -0.2873   -5.0257    1.8039 C.3       1 <0>        -0.1250
     13 C12        -1.5051   -4.3243    1.1677 C.3       1 <0>        -0.1200
     14 C13        -2.2028    0.0226    0.1767 C.2       1 <0>         0.7063
     15 O1         -2.1224    1.2357    0.1857 O.2       1 <0>        -0.5022
     16 N2         -3.4017   -0.5744    0.3282 N.am      1 <0>        -0.6247
     17 C14        -4.5464    0.1971    0.4948 C.2       1 <0>         0.2889
     18 N3         -4.6511    1.5075    0.5245 N.2       1 <0>        -0.5085
     19 C15        -5.8225    2.0953    0.6922 C.2       1 <0>         0.0908
     20 C16        -6.9027    1.2867    0.8311 C.2       1 <0>        -0.1954
     21 S1         -6.1348   -0.3198    0.7000 S.3       1 <0>         0.1721
     22 Cl1        -8.5723    1.7001    1.0657 Cl        1 <0>         0.0338
     23 F1          2.8678    0.4549   -2.3917 F         1 <0>        -0.1186
     24 Br1         4.3477    1.9342   -0.1839 Br        1 <0>        -0.0214
     25 H1          0.0987    0.5349    2.0107 H         1 <0>         0.1396
     26 H2          2.3068    1.6179    1.9242 H         1 <0>         0.1495
     27 H3          0.5111   -0.6232   -2.0846 H         1 <0>         0.1481
     28 H4         -2.1140   -2.4308   -0.6542 H         1 <0>         0.0822
     29 H5         -0.3391   -2.5643   -0.6539 H         1 <0>         0.0991
     30 H6         -2.0359   -2.3442    1.8765 H         1 <0>         0.0759
     31 H7          0.9088   -2.5252    1.2486 H         1 <0>         0.0683
     32 H8          0.0910   -1.7957    2.6660 H         1 <0>         0.0656
     33 H9          1.3544   -4.1592    2.9605 H         1 <0>         0.0681
     34 H10        -0.2645   -3.9430    3.7041 H         1 <0>         0.0672
     35 H11         0.4434   -5.2895    1.0393 H         1 <0>         0.0670
     36 H12        -0.6021   -5.9124    2.3541 H         1 <0>         0.0674
     37 H13        -2.4138   -4.5919    1.7070 H         1 <0>         0.0702
     38 H14        -1.5948   -4.6095    0.1195 H         1 <0>         0.0694
     39 H15        -3.4659   -1.5423    0.3210 H         1 <0>         0.4244
     40 H16        -5.9157    3.1709    0.7179 H         1 <0>         0.1853
@<TRIPOS>BOND
     1    1    6 ar
     2    1    2 ar
     3    1   25 1
     4    2    3 ar
     5    2   26 1
     6    3    4 ar
     7    3   24 1
     8    4    5 ar
     9    4   23 1
    10    5    6 ar
    11    5   27 1
    12    6    7 1
    13    7    8 1
    14    7   14 am
    15    8    9 1
    16    8   28 1
    17    8   29 1
    18    9   13 1
    19    9   10 1
    20    9   30 1
    21   10   11 1
    22   10   31 1
    23   10   32 1
    24   11   12 1
    25   11   33 1
    26   11   34 1
    27   12   13 1
    28   12   35 1
    29   12   36 1
    30   13   37 1
    31   13   38 1
    32   14   15 2
    33   14   16 am
    34   16   17 1
    35   16   39 1
    36   17   21 1
    37   17   18 2
    38   18   19 1
    39   19   20 2
    40   19   40 1
    41   20   21 1
    42   20   22 1
@<TRIPOS>MOLECULE
CHEMBL1164790
   59    63     0     0     0
SMALL
USER_CHARGES

@<TRIPOS>ATOM
      1 C1         -0.3938    1.5094    0.0090 C.ar      1 <0>        -0.1291
      2 C2          0.6979    2.3573    0.0159 C.ar      1 <0>        -0.0227
      3 C3          1.9781    1.8358    0.0282 C.ar      1 <0>        -0.6515
      4 C4          2.1665    0.4663    0.0340 C.ar      1 <0>        -0.0179
      5 C5          1.0747   -0.3816    0.0280 C.ar      1 <0>        -0.1088
      6 C6         -0.2054    0.1400    0.0144 C.ar      1 <0>        -0.0120
      7 C7         -1.3956   -0.7844    0.0073 C.3       1 <0>        -0.0702
      8 C8         -1.2957   -1.7534    1.1872 C.3       1 <0>        -0.1070
      9 C9         -1.4080   -0.9734    2.4986 C.3       1 <0>        -0.0895
     10 C10        -1.1728   -1.9201    3.6796 C.3       1 <0>        -0.1509
     11 C11        -1.3647   -1.1487    4.9880 C.3       1 <0>         0.0598
     12 O1         -2.6775   -0.5850    5.0190 O.3       1 <0>        -0.3814
     13 C12        -2.9384    0.3443    3.9653 C.3       1 <0>         0.0597
     14 C13        -2.8098   -0.3671    2.6158 C.3       1 <0>        -0.1554
     15 C14        -1.4186   -1.5638   -1.2823 C.2       1 <0>         0.5118
     16 O2         -0.5538   -1.3862   -2.1138 O.2       1 <0>        -0.4524
     17 N1         -2.4004   -2.4583   -1.5116 N.am      1 <0>        -0.6221
     18 C15        -2.4217   -3.1772   -2.7010 C.2       1 <0>         0.2734
     19 N2         -1.5769   -3.1230   -3.7015 N.2       1 <0>        -0.5148
     20 C16        -1.7220   -3.8818   -4.7964 C.2       1 <0>         0.0718
     21 C17        -2.8023   -4.6970   -4.7826 C.2       1 <0>        -0.2494
     22 S1         -3.5346   -4.3352   -3.2047 S.3       1 <0>         0.1482
     23 C18        -2.9106   -5.5131   -6.0344 C.3       1 <0>        -0.0259
     24 C19        -1.9820   -4.8029   -7.0454 C.3       1 <0>        -0.1134
     25 C20        -0.9770   -4.0979   -6.1116 C.3       1 <0>        -0.0427
     26 S2          3.3696    2.9166    0.0358 S.o2      1 <0>         2.5240
     27 O3          4.4182    2.1618   -0.5560 O.2       1 <0>        -0.9322
     28 O4          2.9036    4.1120   -0.5751 O.2       1 <0>        -0.9321
     29 C21         3.7235    3.2086    1.7908 C.3       1 <0>        -0.6699
     30 C22         5.0151    2.6171    2.3590 C.3       1 <0>        -0.1255
     31 C23         4.9000    4.1256    2.1311 C.3       1 <0>        -0.1254
     32 H1         -1.3940    1.9169    0.0040 H         1 <0>         0.1332
     33 H2          0.5507    3.4272    0.0114 H         1 <0>         0.1435
     34 H3          3.1666    0.0589    0.0428 H         1 <0>         0.1428
     35 H4          1.2219   -1.4515    0.0319 H         1 <0>         0.1299
     36 H5         -2.3109   -0.1990    0.0944 H         1 <0>         0.1183
     37 H6         -2.1037   -2.4826    1.1278 H         1 <0>         0.0769
     38 H7         -0.3366   -2.2702    1.1528 H         1 <0>         0.0800
     39 H8         -0.6638   -0.1771    2.5141 H         1 <0>         0.0795
     40 H9         -1.8859   -2.7433    3.6342 H         1 <0>         0.0746
     41 H10        -0.1574   -2.3137    3.6344 H         1 <0>         0.0754
     42 H11        -1.2405   -1.8275    5.8317 H         1 <0>         0.0951
     43 H12        -0.6249   -0.3508    5.0513 H         1 <0>         0.0499
     44 H13        -3.9480    0.7411    4.0723 H         1 <0>         0.0950
     45 H14        -2.2192    1.1618    4.0152 H         1 <0>         0.0503
     46 H15        -2.9650    0.3500    1.8097 H         1 <0>         0.0745
     47 H16        -3.5559   -1.1589    2.5489 H         1 <0>         0.0756
     48 H17        -3.0921   -2.6004   -0.8466 H         1 <0>         0.4256
     49 H18        -2.5680   -6.5321   -5.8545 H         1 <0>         0.0871
     50 H19        -3.9379   -5.5154   -6.3987 H         1 <0>         0.0812
     51 H20        -1.4775   -5.5263   -7.6860 H         1 <0>         0.0905
     52 H21        -2.5362   -4.0772   -7.6406 H         1 <0>         0.0800
     53 H22        -0.6761   -3.1402   -6.5362 H         1 <0>         0.0826
     54 H23        -0.1041   -4.7306   -5.9508 H         1 <0>         0.0878
     55 H24         2.8535    3.2416    2.4466 H         1 <0>         0.1607
     56 H25         4.9949    2.2606    3.3888 H         1 <0>         0.1150
     57 H26         5.6521    2.0524    1.6782 H         1 <0>         0.1212
     58 H27         5.4614    4.5535    1.3005 H         1 <0>         0.1095
     59 H28         4.8042    4.7617    3.0111 H         1 <0>         0.1180
@<TRIPOS>BOND
     1    1    6 ar
     2    1    2 ar
     3    1   32 1
     4    2    3 ar
     5    2   33 1
     6    3    4 ar
     7    3   26 1
     8    4    5 ar
     9    4   34 1
    10    5    6 ar
    11    5   35 1
    12    6    7 1
    13    7    8 1
    14    7   15 1
    15    7   36 1
    16    8    9 1
    17    8   37 1
    18    8   38 1
    19    9   14 1
    20    9   10 1
    21    9   39 1
    22   10   11 1
    23   10   40 1
    24   10   41 1
    25   11   12 1
    26   11   42 1
    27   11   43 1
    28   12   13 1
    29   13   14 1
    30   13   44 1
    31   13   45 1
    32   14   46 1
    33   14   47 1
    34   15   16 2
    35   15   17 am
    36   17   18 1
    37   17   48 1
    38   18   22 1
    39   18   19 2
    40   19   20 1
    41   20   25 1
    42   20   21 2
    43   21   22 1
    44   21   23 1
    45   23   24 1
    46   23   49 1
    47   23   50 1
    48   24   25 1
    49   24   51 1
    50   24   52 1
    51   25   53 1
    52   25   54 1
    53   26   27 2
    54   26   28 2
    55   26   29 1
    56   29   31 1
    57   29   30 1
    58   29   55 1
    59   30   31 1
    60   30   56 1
    61   30   57 1
    62   31   58 1
    63   31   59 1
@<TRIPOS>MOLECULE
CHEMBL1164790__1
   59    63     0     0     0
SMALL
USER_CHARGES

@<TRIPOS>ATOM
      1 C1          0.0000    1.5812   -0.2908 C.ar      1 <0>        -0.1293
      2 C2          1.1468    2.3156   -0.5285 C.ar      1 <0>        -0.0199
      3 C3          2.3677    1.6760   -0.6339 C.ar      1 <0>        -0.6515
      4 C4          2.4420    0.3020   -0.5010 C.ar      1 <0>        -0.0216
      5 C5          1.2954   -0.4323   -0.2623 C.ar      1 <0>        -0.1061
      6 C6          0.0742    0.2072   -0.1584 C.ar      1 <0>        -0.0130
      7 C7         -1.1759   -0.5934    0.1013 C.3       1 <0>        -0.0702
      8 C8         -1.3825   -1.5988   -1.0333 C.3       1 <0>        -0.1063
      9 C9         -1.6456   -0.8468   -2.3395 C.3       1 <0>        -0.0910
     10 C10        -2.9879   -0.1146   -2.2477 C.3       1 <0>        -0.1543
     11 C11        -3.2796    0.5697   -3.5858 C.3       1 <0>         0.0590
     12 O1         -3.2838   -0.4078   -4.6282 O.3       1 <0>        -0.3815
     13 C12        -2.0397   -1.0915   -4.7919 C.3       1 <0>         0.0591
     14 C13        -1.6982   -1.8425   -3.5023 C.3       1 <0>        -0.1507
     15 C14        -1.0373   -1.3317    1.4077 C.2       1 <0>         0.5136
     16 O2         -0.0446   -1.1797    2.0878 O.2       1 <0>        -0.4549
     17 N1         -2.0164   -2.1609    1.8203 N.am      1 <0>        -0.6222
     18 C15        -1.8432   -2.9230    2.9698 C.2       1 <0>         0.2736
     19 N2         -0.8093   -2.9615    3.7742 N.2       1 <0>        -0.5157
     20 C16        -0.7799   -3.7507    4.8569 C.2       1 <0>         0.0709
     21 C17        -1.8933   -4.4965    5.0455 C.2       1 <0>        -0.2493
     22 S1         -2.9131   -4.0161    3.6722 S.3       1 <0>         0.1497
     23 C18        -1.7957   -5.3590    6.2668 C.3       1 <0>        -0.0261
     24 C19        -0.2887   -5.3820    6.6093 C.3       1 <0>        -0.1135
     25 C20         0.1976   -4.0561    5.9895 C.3       1 <0>        -0.0420
     26 S2          3.8292    2.6119   -0.9381 S.o2      1 <0>         2.5254
     27 O3          4.7141    1.7041   -1.5801 O.2       1 <0>        -0.9327
     28 O4          3.3783    3.7807   -1.6089 O.2       1 <0>        -0.9340
     29 C21         4.4596    3.0403    0.7080 C.3       1 <0>        -0.6699
     30 C22         4.2937    4.4885    1.1731 C.3       1 <0>        -0.1252
     31 C23         5.6765    3.9649    0.7799 C.3       1 <0>        -0.1252
     32 H1         -0.9532    2.0814   -0.2040 H         1 <0>         0.1334
     33 H2          1.0887    3.3890   -0.6324 H         1 <0>         0.1436
     34 H3          3.3958   -0.1977   -0.5840 H         1 <0>         0.1423
     35 H4          1.3533   -1.5058   -0.1592 H         1 <0>         0.1293
     36 H5         -2.0331    0.0779    0.1525 H         1 <0>         0.1188
     37 H6         -0.4887   -2.2132   -1.1415 H         1 <0>         0.0793
     38 H7         -2.2359   -2.2364   -0.8028 H         1 <0>         0.0770
     39 H8         -0.8466   -0.1260   -2.5126 H         1 <0>         0.0803
     40 H9         -3.7789   -0.8305   -2.0246 H         1 <0>         0.0753
     41 H10        -2.9406    0.6351   -1.4579 H         1 <0>         0.0738
     42 H11        -4.2537    1.0568   -3.5402 H         1 <0>         0.0949
     43 H12        -2.5098    1.3142   -3.7887 H         1 <0>         0.0514
     44 H13        -2.1206   -1.8012   -5.6153 H         1 <0>         0.0954
     45 H14        -1.2537   -0.3687   -5.0107 H         1 <0>         0.0513
     46 H15        -0.7285   -2.3286   -3.6098 H         1 <0>         0.0754
     47 H16        -2.4632   -2.5934   -3.3046 H         1 <0>         0.0741
     48 H17        -2.8419   -2.2258    1.3152 H         1 <0>         0.4261
     49 H18        -2.3652   -4.9222    7.0871 H         1 <0>         0.0871
     50 H19        -2.1515   -6.3663    6.0501 H         1 <0>         0.0814
     51 H20        -0.1343   -5.3876    7.6883 H         1 <0>         0.0904
     52 H21         0.2043   -6.2346    6.1422 H         1 <0>         0.0800
     53 H22         1.2070   -4.1723    5.5951 H         1 <0>         0.0820
     54 H23         0.1723   -3.2603    6.7340 H         1 <0>         0.0874
     55 H24         4.3775    2.2569    1.4614 H         1 <0>         0.1616
     56 H25         3.8059    5.1837    0.4900 H         1 <0>         0.1209
     57 H26         4.1024    4.6579    2.2327 H         1 <0>         0.1149
     58 H27         6.3949    3.7899    1.5808 H         1 <0>         0.1180
     59 H28         6.0984    4.3157   -0.1619 H         1 <0>         0.1096
@<TRIPOS>BOND
     1    1    6 ar
     2    1    2 ar
     3    1   32 1
     4    2    3 ar
     5    2   33 1
     6    3    4 ar
     7    3   26 1
     8    4    5 ar
     9    4   34 1
    10    5    6 ar
    11    5   35 1
    12    6    7 1
    13    7    8 1
    14    7   15 1
    15    7   36 1
    16    8    9 1
    17    8   37 1
    18    8   38 1
    19    9   14 1
    20    9   10 1
    21    9   39 1
    22   10   11 1
    23   10   40 1
    24   10   41 1
    25   11   12 1
    26   11   42 1
    27   11   43 1
    28   12   13 1
    29   13   14 1
    30   13   44 1
    31   13   45 1
    32   14   46 1
    33   14   47 1
    34   15   16 2
    35   15   17 am
    36   17   18 1
    37   17   48 1
    38   18   22 1
    39   18   19 2
    40   19   20 1
    41   20   25 1
    42   20   21 2
    43   21   22 1
    44   21   23 1
    45   23   24 1
    46   23   49 1
    47   23   50 1
    48   24   25 1
    49   24   51 1
    50   24   52 1
    51   25   53 1
    52   25   54 1
    53   26   27 2
    54   26   28 2
    55   26   29 1
    56   29   31 1
    57   29   30 1
    58   29   55 1
    59   30   31 1
    60   30   56 1
    61   30   57 1
    62   31   58 1
    63   31   59 1
@<TRIPOS>MOLECULE
CHEMBL1165284
   62    66     0     0     0
SMALL
USER_CHARGES

@<TRIPOS>ATOM
      1 C1         -0.3938    1.5094    0.0090 C.ar      1 <0>        -0.1291
      2 C2          0.6979    2.3573    0.0159 C.ar      1 <0>        -0.0227
      3 C3          1.9781    1.8358    0.0282 C.ar      1 <0>        -0.6516
      4 C4          2.1665    0.4663    0.0340 C.ar      1 <0>        -0.0179
      5 C5          1.0747   -0.3816    0.0280 C.ar      1 <0>        -0.1088
      6 C6         -0.2054    0.1400    0.0144 C.ar      1 <0>        -0.0117
      7 C7         -1.3956   -0.7844    0.0073 C.3       1 <0>        -0.0704
      8 C8         -1.2957   -1.7534    1.1872 C.3       1 <0>        -0.1068
      9 C9         -1.4080   -0.9734    2.4986 C.3       1 <0>        -0.0894
     10 C10        -1.1728   -1.9201    3.6796 C.3       1 <0>        -0.1509
     11 C11        -1.3647   -1.1487    4.9880 C.3       1 <0>         0.0598
     12 O1         -2.6775   -0.5850    5.0190 O.3       1 <0>        -0.3814
     13 C12        -2.9384    0.3443    3.9653 C.3       1 <0>         0.0597
     14 C13        -2.8098   -0.3671    2.6158 C.3       1 <0>        -0.1554
     15 C14        -1.4186   -1.5638   -1.2823 C.2       1 <0>         0.5118
     16 O2         -0.5538   -1.3862   -2.1138 O.2       1 <0>        -0.4526
     17 N1         -2.4004   -2.4583   -1.5116 N.am      1 <0>        -0.6223
     18 C15        -2.4217   -3.1772   -2.7010 C.2       1 <0>         0.2705
     19 N2         -1.5738   -3.1223   -3.7043 N.2       1 <0>        -0.5173
     20 C16        -1.7196   -3.8757   -4.7905 C.2       1 <0>         0.0951
     21 C17        -2.8029   -4.6943   -4.7763 C.2       1 <0>        -0.2198
     22 S1         -3.5365   -4.3366   -3.2046 S.3       1 <0>         0.1119
     23 C18        -3.2376   -5.6494   -5.8354 C.3       1 <0>        -0.0302
     24 C19        -2.4745   -5.3134   -7.1269 C.3       1 <0>        -0.1142
     25 C20        -0.9897   -5.1435   -6.7933 C.3       1 <0>        -0.1205
     26 C21        -0.7752   -3.8624   -5.9842 C.3       1 <0>        -0.0402
     27 S2          3.3696    2.9166    0.0358 S.o2      1 <0>         2.5240
     28 O3          4.4182    2.1618   -0.5560 O.2       1 <0>        -0.9322
     29 O4          2.9036    4.1120   -0.5751 O.2       1 <0>        -0.9321
     30 C22         3.7235    3.2086    1.7908 C.3       1 <0>        -0.6699
     31 C23         5.0151    2.6171    2.3590 C.3       1 <0>        -0.1255
     32 C24         4.9000    4.1256    2.1311 C.3       1 <0>        -0.1254
     33 H1         -1.3940    1.9169    0.0040 H         1 <0>         0.1330
     34 H2          0.5507    3.4272    0.0114 H         1 <0>         0.1434
     35 H3          3.1666    0.0589    0.0428 H         1 <0>         0.1428
     36 H4          1.2219   -1.4515    0.0319 H         1 <0>         0.1298
     37 H5         -2.3109   -0.1990    0.0944 H         1 <0>         0.1180
     38 H6         -2.1037   -2.4826    1.1278 H         1 <0>         0.0766
     39 H7         -0.3366   -2.2702    1.1528 H         1 <0>         0.0799
     40 H8         -0.6638   -0.1771    2.5141 H         1 <0>         0.0795
     41 H9         -1.8859   -2.7433    3.6342 H         1 <0>         0.0745
     42 H10        -0.1574   -2.3137    3.6344 H         1 <0>         0.0753
     43 H11        -1.2405   -1.8275    5.8317 H         1 <0>         0.0951
     44 H12        -0.6249   -0.3508    5.0513 H         1 <0>         0.0499
     45 H13        -3.9480    0.7411    4.0723 H         1 <0>         0.0950
     46 H14        -2.2192    1.1618    4.0152 H         1 <0>         0.0503
     47 H15        -2.9650    0.3500    1.8097 H         1 <0>         0.0744
     48 H16        -3.5559   -1.1589    2.5489 H         1 <0>         0.0755
     49 H17        -3.0921   -2.6004   -0.8466 H         1 <0>         0.4249
     50 H18        -3.0080   -6.6695   -5.5274 H         1 <0>         0.0832
     51 H19        -4.3096   -5.5481   -6.0046 H         1 <0>         0.0815
     52 H20        -2.5970   -6.1241   -7.8451 H         1 <0>         0.0776
     53 H21        -2.8623   -4.3866   -7.5497 H         1 <0>         0.0698
     54 H22        -0.6498   -5.9999   -6.2111 H         1 <0>         0.0675
     55 H23        -0.4156   -5.0870   -7.7182 H         1 <0>         0.0763
     56 H24        -0.9879   -2.9950   -6.6091 H         1 <0>         0.0830
     57 H25         0.2561   -3.8196   -5.6341 H         1 <0>         0.0841
     58 H26         2.8535    3.2416    2.4466 H         1 <0>         0.1607
     59 H27         4.9949    2.2606    3.3888 H         1 <0>         0.1150
     60 H28         5.6521    2.0524    1.6782 H         1 <0>         0.1212
     61 H29         5.4614    4.5535    1.3005 H         1 <0>         0.1094
     62 H30         4.8042    4.7617    3.0111 H         1 <0>         0.1180
@<TRIPOS>BOND
     1    1    6 ar
     2    1    2 ar
     3    1   33 1
     4    2    3 ar
     5    2   34 1
     6    3    4 ar
     7    3   27 1
     8    4    5 ar
     9    4   35 1
    10    5    6 ar
    11    5   36 1
    12    6    7 1
    13    7    8 1
    14    7   15 1
    15    7   37 1
    16    8    9 1
    17    8   38 1
    18    8   39 1
    19    9   14 1
    20    9   10 1
    21    9   40 1
    22   10   11 1
    23   10   41 1
    24   10   42 1
    25   11   12 1
    26   11   43 1
    27   11   44 1
    28   12   13 1
    29   13   14 1
    30   13   45 1
    31   13   46 1
    32   14   47 1
    33   14   48 1
    34   15   16 2
    35   15   17 am
    36   17   18 1
    37   17   49 1
    38   18   22 1
    39   18   19 2
    40   19   20 1
    41   20   26 1
    42   20   21 2
    43   21   22 1
    44   21   23 1
    45   23   24 1
    46   23   50 1
    47   23   51 1
    48   24   25 1
    49   24   52 1
    50   24   53 1
    51   25   26 1
    52   25   54 1
    53   25   55 1
    54   26   56 1
    55   26   57 1
    56   27   28 2
    57   27   29 2
    58   27   30 1
    59   30   32 1
    60   30   31 1
    61   30   58 1
    62   31   32 1
    63   31   59 1
    64   31   60 1
    65   32   61 1
    66   32   62 1
@<TRIPOS>MOLECULE
CHEMBL1165284__1
   62    66     0     0     0
SMALL
USER_CHARGES

@<TRIPOS>ATOM
      1 C1         -0.0002    1.5812   -0.2911 C.ar      1 <0>        -0.1294
      2 C2          1.1465    2.3156   -0.5290 C.ar      1 <0>        -0.0200
      3 C3          2.3675    1.6760   -0.6344 C.ar      1 <0>        -0.6516
      4 C4          2.4418    0.3021   -0.5013 C.ar      1 <0>        -0.0216
      5 C5          1.2952   -0.4322   -0.2625 C.ar      1 <0>        -0.1060
      6 C6          0.0741    0.2072   -0.1585 C.ar      1 <0>        -0.0127
      7 C7         -1.1760   -0.5933    0.1013 C.3       1 <0>        -0.0705
      8 C8         -1.3826   -1.5989   -1.0332 C.3       1 <0>        -0.1061
      9 C9         -1.6459   -0.8471   -2.3395 C.3       1 <0>        -0.0910
     10 C10        -2.9882   -0.1148   -2.2476 C.3       1 <0>        -0.1542
     11 C11        -3.2800    0.5693   -3.5857 C.3       1 <0>         0.0590
     12 O1         -3.2843   -0.4083   -4.6281 O.3       1 <0>        -0.3815
     13 C12        -2.0401   -1.0920   -4.7918 C.3       1 <0>         0.0591
     14 C13        -1.6985   -1.8429   -3.5022 C.3       1 <0>        -0.1507
     15 C14        -1.0372   -1.3315    1.4078 C.2       1 <0>         0.5136
     16 O2         -0.0446   -1.1794    2.0878 O.2       1 <0>        -0.4550
     17 N1         -2.0163   -2.1607    1.8205 N.am      1 <0>        -0.6225
     18 C15        -1.8430   -2.9227    2.9701 C.2       1 <0>         0.2708
     19 N2         -0.8055   -2.9607    3.7766 N.2       1 <0>        -0.5182
     20 C16        -0.7777   -3.7448    4.8504 C.2       1 <0>         0.0944
     21 C17        -1.8951   -4.4925    5.0405 C.2       1 <0>        -0.2198
     22 S1         -2.9149   -4.0170    3.6729 S.3       1 <0>         0.1134
     23 C18        -2.1671   -5.4615    6.1404 C.3       1 <0>        -0.0305
     24 C19        -0.8373   -5.7713    6.8467 C.3       1 <0>        -0.1140
     25 C20        -0.1108   -4.4538    7.1316 C.3       1 <0>        -0.1208
     26 C21         0.3888   -3.8348    5.8243 C.3       1 <0>        -0.0394
     27 S2          3.8290    2.6120   -0.9388 S.o2      1 <0>         2.5255
     28 O3          4.7138    1.7041   -1.5807 O.2       1 <0>        -0.9327
     29 O4          3.3780    3.7806   -1.6097 O.2       1 <0>        -0.9341
     30 C22         4.4594    3.0406    0.7073 C.3       1 <0>        -0.6698
     31 C23         4.2936    4.4887    1.1723 C.3       1 <0>        -0.1252
     32 C24         5.6764    3.9651    0.7790 C.3       1 <0>        -0.1253
     33 H1         -0.9534    2.0814   -0.2043 H         1 <0>         0.1332
     34 H2          1.0885    3.3890   -0.6329 H         1 <0>         0.1435
     35 H3          3.3956   -0.1977   -0.5844 H         1 <0>         0.1423
     36 H4          1.3532   -1.5057   -0.1593 H         1 <0>         0.1293
     37 H5         -2.0332    0.0779    0.1525 H         1 <0>         0.1184
     38 H6         -0.4888   -2.2133   -1.1414 H         1 <0>         0.0792
     39 H7         -2.2361   -2.2365   -0.8026 H         1 <0>         0.0768
     40 H8         -0.8469   -0.1262   -2.5126 H         1 <0>         0.0803
     41 H9         -3.7792   -0.8308   -2.0244 H         1 <0>         0.0752
     42 H10        -2.9408    0.6350   -1.4579 H         1 <0>         0.0738
     43 H11        -4.2541    1.0564   -3.5402 H         1 <0>         0.0948
     44 H12        -2.5103    1.3139   -3.7888 H         1 <0>         0.0514
     45 H13        -2.1210   -1.8017   -5.6151 H         1 <0>         0.0954
     46 H14        -1.2542   -0.3692   -5.0107 H         1 <0>         0.0514
     47 H15        -0.7288   -2.3289   -3.6097 H         1 <0>         0.0754
     48 H16        -2.4634   -2.5937   -3.3043 H         1 <0>         0.0741
     49 H17        -2.8418   -2.2257    1.3154 H         1 <0>         0.4254
     50 H18        -2.8679   -5.0237    6.8513 H         1 <0>         0.0833
     51 H19        -2.5865   -6.3788    5.7271 H         1 <0>         0.0817
     52 H20        -1.0342   -6.2901    7.7849 H         1 <0>         0.0776
     53 H21        -0.2193   -6.3976    6.2034 H         1 <0>         0.0698
     54 H22        -0.7961   -3.7616    7.6207 H         1 <0>         0.0675
     55 H23         0.7378   -4.6439    7.7888 H         1 <0>         0.0761
     56 H24         1.1728   -4.4613    5.3990 H         1 <0>         0.0826
     57 H25         0.7805   -2.8364    6.0189 H         1 <0>         0.0835
     58 H26         4.3774    2.2572    1.4607 H         1 <0>         0.1616
     59 H27         3.8057    5.1839    0.4891 H         1 <0>         0.1209
     60 H28         4.1023    4.6583    2.2319 H         1 <0>         0.1149
     61 H29         6.3948    3.7902    1.5798 H         1 <0>         0.1180
     62 H30         6.0982    4.3159   -0.1629 H         1 <0>         0.1096
@<TRIPOS>BOND
     1    1    6 ar
     2    1    2 ar
     3    1   33 1
     4    2    3 ar
     5    2   34 1
     6    3    4 ar
     7    3   27 1
     8    4    5 ar
     9    4   35 1
    10    5    6 ar
    11    5   36 1
    12    6    7 1
    13    7    8 1
    14    7   15 1
    15    7   37 1
    16    8    9 1
    17    8   38 1
    18    8   39 1
    19    9   14 1
    20    9   10 1
    21    9   40 1
    22   10   11 1
    23   10   41 1
    24   10   42 1
    25   11   12 1
    26   11   43 1
    27   11   44 1
    28   12   13 1
    29   13   14 1
    30   13   45 1
    31   13   46 1
    32   14   47 1
    33   14   48 1
    34   15   16 2
    35   15   17 am
    36   17   18 1
    37   17   49 1
    38   18   22 1
    39   18   19 2
    40   19   20 1
    41   20   26 1
    42   20   21 2
    43   21   22 1
    44   21   23 1
    45   23   24 1
    46   23   50 1
    47   23   51 1
    48   24   25 1
    49   24   52 1
    50   24   53 1
    51   25   26 1
    52   25   54 1
    53   25   55 1
    54   26   56 1
    55   26   57 1
    56   27   28 2
    57   27   29 2
    58   27   30 1
    59   30   32 1
    60   30   31 1
    61   30   58 1
    62   31   32 1
    63   31   59 1
    64   31   60 1
    65   32   61 1
    66   32   62 1
@<TRIPOS>MOLECULE
CHEMBL575087
   39    42     0     0     0
SMALL
USER_CHARGES

@<TRIPOS>ATOM
      1 C1         -0.0178    1.4608    0.0101 C.3       1 <0>         0.1042
      2 N1          0.0021   -0.0041    0.0020 N.pl3     1 <0>        -0.3698
      3 C2          0.0078   -0.7909   -1.0946 C.2       1 <0>         0.0601
      4 C3          0.0272   -2.0784   -0.6814 C.2       1 <0>        -0.2623
      5 C4          0.0335   -2.0801    0.7229 C.2       1 <0>         0.2986
      6 N2          0.0245   -0.8329    1.1310 N.2       1 <0>        -0.3263
      7 N3          0.0526   -3.2144    1.5441 N.pl3     1 <0>        -0.5992
      8 C5          0.0671   -4.4738    0.9807 C.ar      1 <0>         0.4766
      9 C6          0.0806   -5.6343    1.7932 C.ar      1 <0>        -0.1510
     10 C7          0.0797   -5.5621    3.1902 C.ar      1 <0>        -0.1031
     11 C8          0.0928   -6.7271    3.9272 C.ar      1 <0>         0.1065
     12 C9          0.1068   -7.9711    3.2915 C.ar      1 <0>        -0.1384
     13 C10         0.1083   -8.0639    1.9327 C.ar      1 <0>        -0.0615
     14 C11         0.0947   -6.8981    1.1547 C.ar      1 <0>         0.1667
     15 N4          0.0947   -6.9417   -0.1867 N.ar      1 <0>        -0.5357
     16 C12         0.0819   -5.8339   -0.8885 C.ar      1 <0>         0.3381
     17 N5          0.0633   -4.6310   -0.3361 N.ar      1 <0>        -0.5680
     18 O1          0.0926   -6.6649    5.2848 O.3       1 <0>        -0.2362
     19 C13         0.1057   -7.8350    5.9775 C.ar      1 <0>         0.0044
     20 C14        -1.0892   -8.4499    6.3274 C.ar      1 <0>         0.1272
     21 C15        -1.0723   -9.6404    7.0323 C.ar      1 <0>        -0.1536
     22 C16         0.1324  -10.2176    7.3887 C.ar      1 <0>        -0.0514
     23 C17         1.3239   -9.6079    7.0418 C.ar      1 <0>        -0.1536
     24 C18         1.3141   -8.4205    6.3316 C.ar      1 <0>         0.1273
     25 F1          2.4788   -7.8283    5.9881 F         1 <0>        -0.1162
     26 F2         -2.2669   -7.8861    5.9804 F         1 <0>        -0.1162
     27 H1          1.0048    1.8381    0.0023 H         1 <0>         0.0747
     28 H2         -0.5450    1.8219   -0.8730 H         1 <0>         0.0899
     29 H3         -0.5280    1.8123    0.9069 H         1 <0>         0.0885
     30 H4         -0.0018   -0.4523   -2.1201 H         1 <0>         0.1785
     31 H5          0.0358   -2.9505   -1.3184 H         1 <0>         0.1854
     32 H6          0.0556   -3.1146    2.5089 H         1 <0>         0.4264
     33 H7          0.0693   -4.6030    3.6866 H         1 <0>         0.1394
     34 H8          0.1170   -8.8725    3.8864 H         1 <0>         0.1360
     35 H9          0.1199   -9.0330    1.4561 H         1 <0>         0.1505
     36 H10         0.0826   -5.9063   -1.9661 H         1 <0>         0.2008
     37 H11        -2.0013  -10.1192    7.3048 H         1 <0>         0.1543
     38 H12         0.1428  -11.1465    7.9395 H         1 <0>         0.1540
     39 H13         2.2633  -10.0613    7.3217 H         1 <0>         0.1543
@<TRIPOS>BOND
     1    1    2 1
     2    1   27 1
     3    1   28 1
     4    1   29 1
     5    2    6 1
     6    2    3 1
     7    3    4 2
     8    3   30 1
     9    4    5 1
    10    4   31 1
    11    5    6 2
    12    5    7 1
    13    7    8 1
    14    7   32 1
    15    8   17 ar
    16    8    9 ar
    17    9   14 ar
    18    9   10 ar
    19   10   11 ar
    20   10   33 1
    21   11   12 ar
    22   11   18 1
    23   12   13 ar
    24   12   34 1
    25   13   14 ar
    26   13   35 1
    27   14   15 ar
    28   15   16 ar
    29   16   17 ar
    30   16   36 1
    31   18   19 1
    32   19   24 ar
    33   19   20 ar
    34   20   21 ar
    35   20   26 1
    36   21   22 ar
    37   21   37 1
    38   22   23 ar
    39   22   38 1
    40   23   24 ar
    41   23   39 1
    42   24   25 1
@<TRIPOS>MOLECULE
CHEMBL575905
   44    47     0     0     0
SMALL
USER_CHARGES

@<TRIPOS>ATOM
      1 C1         -1.6242   -0.9044   -0.1322 C.3       1 <0>        -0.6453
      2 S1         -0.0355   -0.0414    0.0164 S.o2      1 <0>         2.4942
      3 O1         -0.2185    1.3559   -0.1665 O.2       1 <0>        -0.9166
      4 O2          0.6879   -0.5369    1.1346 O.2       1 <0>        -0.9307
      5 C2          0.8949   -0.5605   -1.3869 C.ar      1 <0>        -0.6449
      6 C3          2.0506   -1.2989   -1.2157 C.ar      1 <0>        -0.0182
      7 C4          2.7818   -1.7070   -2.3154 C.ar      1 <0>        -0.1010
      8 C5          2.3600   -1.3777   -3.5907 C.ar      1 <0>        -0.0896
      9 C6          1.2044   -0.6392   -3.7684 C.ar      1 <0>         0.0786
     10 C7          0.4649   -0.2334   -2.6639 C.ar      1 <0>         0.1353
     11 O3         -0.6747    0.4876   -2.8349 O.3       1 <0>        -0.2602
     12 C8         -0.5612    1.8327   -2.9918 C.ar      1 <0>         0.1226
     13 C9          0.7034    2.4266   -2.9790 C.ar      1 <0>        -0.1278
     14 C10         0.8477    3.7719   -3.1343 C.ar      1 <0>        -0.0593
     15 C11        -0.2852    4.5785   -3.3100 C.ar      1 <0>         0.1656
     16 C12        -1.5700    3.9823   -3.3239 C.ar      1 <0>        -0.1494
     17 C13        -1.6945    2.5976   -3.1677 C.ar      1 <0>        -0.1028
     18 C14        -2.6956    4.8224   -3.5037 C.ar      1 <0>         0.4506
     19 N1         -2.4889    6.1241   -3.6499 N.ar      1 <0>        -0.5138
     20 C15        -1.2688    6.6366   -3.6301 C.ar      1 <0>         0.3293
     21 N2         -0.1907    5.9075   -3.4672 N.ar      1 <0>        -0.5339
     22 N3         -3.9739    4.3002   -3.5267 N.pl3     1 <0>        -0.6258
     23 C16        -5.0726    5.1522   -3.5955 C.ar      1 <0>         0.3620
     24 C17        -6.3580    4.6278   -3.5075 C.ar      1 <0>        -0.2102
     25 C18        -7.4408    5.4858   -3.5769 C.ar      1 <0>        -0.0464
     26 C19        -7.2006    6.8446   -3.7327 C.ar      1 <0>        -0.2064
     27 C20        -5.8984    7.2961   -3.8130 C.ar      1 <0>         0.1339
     28 N4         -4.8847    6.4548   -3.7387 N.ar      1 <0>        -0.4631
     29 F1          0.7921   -0.3173   -5.0140 F         1 <0>        -0.1191
     30 H1         -2.0883   -0.6495   -1.0849 H         1 <0>         0.1375
     31 H2         -1.4588   -1.9807   -0.0850 H         1 <0>         0.1339
     32 H3         -2.2800   -0.6014    0.6840 H         1 <0>         0.1374
     33 H4          2.3831   -1.5571   -0.2211 H         1 <0>         0.1633
     34 H5          3.6845   -2.2839   -2.1785 H         1 <0>         0.1537
     35 H6          2.9335   -1.6972   -4.4483 H         1 <0>         0.1553
     36 H7          1.5795    1.8097   -2.8436 H         1 <0>         0.1331
     37 H8          1.8321    4.2160   -3.1218 H         1 <0>         0.1487
     38 H9         -2.6693    2.1328   -3.1812 H         1 <0>         0.1365
     39 H10        -1.1558    7.7035   -3.7537 H         1 <0>         0.1978
     40 H11        -4.1062    3.3398   -3.4948 H         1 <0>         0.4281
     41 H12        -6.5085    3.5651   -3.3870 H         1 <0>         0.1339
     42 H13        -8.4502    5.1074   -3.5119 H         1 <0>         0.1376
     43 H14        -8.0240    7.5410   -3.7907 H         1 <0>         0.1354
     44 H15        -5.7069    8.3520   -3.9345 H         1 <0>         0.1599
@<TRIPOS>BOND
     1    1    2 1
     2    1   30 1
     3    1   31 1
     4    1   32 1
     5    2    3 2
     6    2    4 2
     7    2    5 1
     8    5   10 ar
     9    5    6 ar
    10    6    7 ar
    11    6   33 1
    12    7    8 ar
    13    7   34 1
    14    8    9 ar
    15    8   35 1
    16    9   10 ar
    17    9   29 1
    18   10   11 1
    19   11   12 1
    20   12   17 ar
    21   12   13 ar
    22   13   14 ar
    23   13   36 1
    24   14   15 ar
    25   14   37 1
    26   15   21 ar
    27   15   16 ar
    28   16   17 ar
    29   16   18 ar
    30   17   38 1
    31   18   19 ar
    32   18   22 1
    33   19   20 ar
    34   20   21 ar
    35   20   39 1
    36   22   23 1
    37   22   40 1
    38   23   28 ar
    39   23   24 ar
    40   24   25 ar
    41   24   41 1
    42   25   26 ar
    43   25   42 1
    44   26   27 ar
    45   26   43 1
    46   27   28 ar
    47   27   44 1
@<TRIPOS>MOLECULE
CHEMBL606041
   60    63     0     0     0
SMALL
USER_CHARGES

@<TRIPOS>ATOM
      1 C1         -0.2301    1.6427    0.0958 C.3       1 <0>        -0.1717
      2 C2         -0.2279    0.1128    0.0773 C.3       1 <0>         0.1000
      3 N1          0.4227   -0.3598   -1.1473 N.am      1 <0>        -0.6113
      4 C3          1.8791   -0.5121   -1.1910 C.3       1 <0>         0.1664
      5 C4          2.2518   -1.9058   -0.7555 C.ar      1 <0>        -0.1303
      6 C5          2.6842   -2.1222    0.5210 C.ar      1 <0>        -0.0093
      7 C6          3.0313   -3.4140    0.9317 C.ar      1 <0>         0.0216
      8 C7          2.9307   -4.4816    0.0204 C.ar      1 <0>         0.0997
      9 C8          2.4900   -4.2462   -1.2739 C.ar      1 <0>        -0.2054
     10 C9          2.1464   -2.9616   -1.6576 C.ar      1 <0>         0.1622
     11 O1          1.7087   -2.7284   -2.9229 O.3       1 <0>        -0.2091
     12 C10         1.5179   -3.7978   -3.7392 C.ar      1 <0>         0.1609
     13 C11         0.5188   -4.7184   -3.4565 C.ar      1 <0>        -0.1631
     14 C12         0.3266   -5.8044   -4.2882 C.ar      1 <0>        -0.0077
     15 C13         1.1290   -5.9749   -5.4014 C.ar      1 <0>        -0.6720
     16 C14         2.1255   -5.0593   -5.6851 C.ar      1 <0>        -0.0046
     17 C15         2.3179   -3.9682   -4.8600 C.ar      1 <0>        -0.1440
     18 S1          0.8815   -7.3616   -6.4598 S.o2      1 <0>         2.4959
     19 O2          2.1465   -7.5842   -7.0677 O.2       1 <0>        -0.9346
     20 O3          0.2932   -8.3522   -5.6281 O.2       1 <0>        -0.9355
     21 C16        -0.3159   -6.7945   -7.6989 C.3       1 <0>        -0.6070
     22 C17        -0.6090   -7.9297   -8.6819 C.3       1 <0>        -0.1508
     23 N2          3.3346   -5.6106    0.7038 N.pl3     1 <0>        -0.5776
     24 C18         3.6618   -5.2189    1.9751 C.2       1 <0>         0.3247
     25 N3          3.4813   -3.9281    2.1016 N.2       1 <0>        -0.4601
     26 C19         4.1456   -6.1194    3.0450 C.ar      1 <0>         0.1804
     27 C20         4.4416   -5.6000    4.3050 C.ar      1 <0>        -0.1189
     28 C21         4.8931   -6.4551    5.2954 C.ar      1 <0>        -0.0735
     29 C22         5.0341   -7.8022    4.9939 C.ar      1 <0>        -0.1577
     30 C23         4.7221   -8.2496    3.7224 C.ar      1 <0>         0.1072
     31 N4          4.2892   -7.4163    2.7994 N.ar      1 <0>        -0.4797
     32 C24        -0.3186   -0.6546   -2.2336 C.2       1 <0>         0.5040
     33 O4          0.2132   -1.1024   -3.2273 O.2       1 <0>        -0.5129
     34 C25        -1.8083   -0.4278   -2.2134 C.3       1 <0>        -0.1782
     35 H1          0.7965    2.0078    0.0656 H         1 <0>         0.0597
     36 H2         -0.7741    2.0158   -0.7720 H         1 <0>         0.0580
     37 H3         -0.7142    1.9943    1.0069 H         1 <0>         0.0681
     38 H4          0.3161   -0.2603    0.9450 H         1 <0>         0.0789
     39 H5         -1.2545   -0.2524    0.1074 H         1 <0>         0.0840
     40 H6          2.2317   -0.3428   -2.2084 H         1 <0>         0.0977
     41 H7          2.3405    0.2135   -0.5211 H         1 <0>         0.0887
     42 H8          2.7586   -1.2968    1.2135 H         1 <0>         0.1426
     43 H9          2.4113   -5.0620   -1.9772 H         1 <0>         0.1322
     44 H10        -0.1077   -4.5861   -2.5868 H         1 <0>         0.1363
     45 H11        -0.4508   -6.5212   -4.0687 H         1 <0>         0.1470
     46 H12         2.7511   -5.1949   -6.5549 H         1 <0>         0.1502
     47 H13         3.0936   -3.2510   -5.0845 H         1 <0>         0.1437
     48 H14        -1.2393   -6.4966   -7.2021 H         1 <0>         0.1357
     49 H15         0.0967   -5.9429   -8.2398 H         1 <0>         0.1363
     50 H16         0.3143   -8.2277   -9.1786 H         1 <0>         0.0750
     51 H17        -1.0217   -8.7813   -8.1409 H         1 <0>         0.0746
     52 H18        -1.3285   -7.5890   -9.4264 H         1 <0>         0.0861
     53 H19         4.3206   -4.5456    4.5050 H         1 <0>         0.1515
     54 H20         5.1307   -6.0821    6.2807 H         1 <0>         0.1450
     55 H21         5.3845   -8.4950    5.7448 H         1 <0>         0.1428
     56 H22         4.8312   -9.2975    3.4849 H         1 <0>         0.1649
     57 H23        -2.0327    0.5503   -2.6390 H         1 <0>         0.0924
     58 H24        -2.3016   -1.2017   -2.8015 H         1 <0>         0.0885
     59 H25        -2.1680   -0.4679   -1.1853 H         1 <0>         0.0805
     60 H26         3.3786   -6.5128    0.3501 H         1 <0>         0.4319
@<TRIPOS>BOND
     1    1    2 1
     2    1   35 1
     3    1   36 1
     4    1   37 1
     5    2    3 1
     6    2   38 1
     7    2   39 1
     8    3    4 1
     9    3   32 am
    10    4    5 1
    11    4   40 1
    12    4   41 1
    13    5   10 ar
    14    5    6 ar
    15    6    7 ar
    16    6   42 1
    17    7   25 1
    18    7    8 ar
    19    8    9 ar
    20    8   23 1
    21    9   10 ar
    22    9   43 1
    23   10   11 1
    24   11   12 1
    25   12   17 ar
    26   12   13 ar
    27   13   14 ar
    28   13   44 1
    29   14   15 ar
    30   14   45 1
    31   15   16 ar
    32   15   18 1
    33   16   17 ar
    34   16   46 1
    35   17   47 1
    36   18   19 2
    37   18   20 2
    38   18   21 1
    39   21   22 1
    40   21   48 1
    41   21   49 1
    42   22   50 1
    43   22   51 1
    44   22   52 1
    45   23   24 1
    46   23   60 1
    47   24   25 2
    48   24   26 1
    49   26   31 ar
    50   26   27 ar
    51   27   28 ar
    52   27   53 1
    53   28   29 ar
    54   28   54 1
    55   29   30 ar
    56   29   55 1
    57   30   31 ar
    58   30   56 1
    59   32   33 2
    60   32   34 1
    61   34   57 1
    62   34   58 1
    63   34   59 1
@<TRIPOS>MOLECULE
CHEMBL606041__1
   60    63     0     0     0
SMALL
USER_CHARGES

@<TRIPOS>ATOM
      1 C1          0.0144    1.6499   -0.2205 C.3       1 <0>        -0.1720
      2 C2          0.0533    0.1205   -0.2389 C.3       1 <0>         0.1010
      3 N1          0.7962   -0.3631    0.9276 N.am      1 <0>        -0.6118
      4 C3          0.1086   -0.5509    2.2075 C.3       1 <0>         0.1656
      5 C4         -0.4328   -1.9552    2.2855 C.ar      1 <0>        -0.1020
      6 C5         -1.7633   -2.1919    2.0154 C.ar      1 <0>        -0.0615
      7 C6         -2.2650   -3.4841    2.0864 C.ar      1 <0>         0.0277
      8 C7         -1.4159   -4.5505    2.4338 C.ar      1 <0>         0.0941
      9 C8         -0.0672   -4.2965    2.7049 C.ar      1 <0>        -0.1539
     10 C9          0.4159   -3.0059    2.6246 C.ar      1 <0>         0.1313
     11 O1          1.7275   -2.7584    2.8827 O.3       1 <0>        -0.2133
     12 C10         2.5456   -3.8205    3.1039 C.ar      1 <0>         0.1618
     13 C11         2.8137   -4.7167    2.0789 C.ar      1 <0>        -0.1620
     14 C12         3.6457   -5.7956    2.3065 C.ar      1 <0>        -0.0062
     15 C13         4.2109   -5.9833    3.5543 C.ar      1 <0>        -0.6717
     16 C14         3.9454   -5.0918    4.5774 C.ar      1 <0>        -0.0049
     17 C15         3.1191   -4.0077    4.3535 C.ar      1 <0>        -0.1445
     18 S1          5.2708   -7.3613    3.8415 S.o2      1 <0>         2.4963
     19 O2          5.1679   -7.6134    5.2362 O.2       1 <0>        -0.9347
     20 O3          4.8586   -8.3389    2.8962 O.2       1 <0>        -0.9349
     21 C16         6.9343   -6.7623    3.4359 C.3       1 <0>        -0.6079
     22 C17         7.9481   -7.8879    3.6509 C.3       1 <0>        -0.1507
     23 N2         -2.1658   -5.6783    2.4251 N.2       1 <0>        -0.4742
     24 C18        -3.4006   -5.3841    2.1010 C.2       1 <0>         0.3406
     25 N3         -3.5141   -4.0382    1.8812 N.pl3     1 <0>        -0.5752
     26 H1         -4.3207   -3.5622    1.6286 H         1 <0>         0.4313
     27 C19        -4.5066   -6.3609    1.9889 C.ar      1 <0>         0.1763
     28 C20        -4.2661   -7.7105    2.2443 C.ar      1 <0>        -0.1162
     29 C21        -5.3111   -8.6119    2.1358 C.ar      1 <0>        -0.0733
     30 C22        -6.5630   -8.1345    1.7752 C.ar      1 <0>        -0.1556
     31 C23        -6.7307   -6.7819    1.5362 C.ar      1 <0>         0.1061
     32 N4         -5.7213   -5.9445    1.6514 N.ar      1 <0>        -0.4787
     33 C24         2.1120   -0.6351    0.8232 C.2       1 <0>         0.5037
     34 O4          2.7139   -1.0920    1.7718 O.2       1 <0>        -0.5095
     35 C25         2.8355   -0.3716   -0.4723 C.3       1 <0>        -0.1780
     36 H2          1.0319    2.0397   -0.2506 H         1 <0>         0.0589
     37 H3         -0.5382    2.0097   -1.0884 H         1 <0>         0.0678
     38 H4         -0.4781    1.9900    0.6904 H         1 <0>         0.0591
     39 H5         -0.9642   -0.2692   -0.2088 H         1 <0>         0.0763
     40 H6          0.5459   -0.2195   -1.1498 H         1 <0>         0.0846
     41 H7          0.8109   -0.3863    3.0247 H         1 <0>         0.0996
     42 H8         -0.7136    0.1603    2.2861 H         1 <0>         0.0871
     43 H9         -2.4149   -1.3728    1.7491 H         1 <0>         0.1356
     44 H10         0.5940   -5.1073    2.9730 H         1 <0>         0.1384
     45 H11         2.3719   -4.5709    1.1043 H         1 <0>         0.1358
     46 H12         3.8546   -6.4934    1.5091 H         1 <0>         0.1468
     47 H13         4.3879   -5.2409    5.5513 H         1 <0>         0.1495
     48 H14         2.9159   -3.3091    5.1516 H         1 <0>         0.1428
     49 H15         6.9615   -6.4429    2.3941 H         1 <0>         0.1355
     50 H16         7.1845   -5.9200    4.0809 H         1 <0>         0.1360
     51 H17         7.6980   -8.7303    3.0060 H         1 <0>         0.0746
     52 H18         8.9477   -7.5280    3.4072 H         1 <0>         0.0854
     53 H19         7.9209   -8.2073    4.6927 H         1 <0>         0.0748
     54 H20        -3.2786   -8.0477    2.5226 H         1 <0>         0.1522
     55 H21        -5.1553   -9.6634    2.3271 H         1 <0>         0.1457
     56 H22        -7.3986   -8.8122    1.6817 H         1 <0>         0.1433
     57 H23        -7.7039   -6.4075    1.2551 H         1 <0>         0.1652
     58 H24         3.3006    0.6134   -0.4349 H         1 <0>         0.0924
     59 H25         3.6036   -1.1307   -0.6204 H         1 <0>         0.0894
     60 H26         2.1255   -0.4070   -1.2986 H         1 <0>         0.0800
@<TRIPOS>BOND
     1    1    2 1
     2    1   36 1
     3    1   37 1
     4    1   38 1
     5    2    3 1
     6    2   39 1
     7    2   40 1
     8    3    4 1
     9    3   33 am
    10    4    5 1
    11    4   41 1
    12    4   42 1
    13    5   10 ar
    14    5    6 ar
    15    6    7 ar
    16    6   43 1
    17    7   25 1
    18    7    8 ar
    19    8    9 ar
    20    8   23 1
    21    9   10 ar
    22    9   44 1
    23   10   11 1
    24   11   12 1
    25   12   17 ar
    26   12   13 ar
    27   13   14 ar
    28   13   45 1
    29   14   15 ar
    30   14   46 1
    31   15   16 ar
    32   15   18 1
    33   16   17 ar
    34   16   47 1
    35   17   48 1
    36   18   19 2
    37   18   20 2
    38   18   21 1
    39   21   22 1
    40   21   49 1
    41   21   50 1
    42   22   51 1
    43   22   52 1
    44   22   53 1
    45   23   24 2
    46   24   25 1
    47   24   27 1
    48   25   26 1
    49   27   32 ar
    50   27   28 ar
    51   28   29 ar
    52   28   54 1
    53   29   30 ar
    54   29   55 1
    55   30   31 ar
    56   30   56 1
    57   31   32 ar
    58   31   57 1
    59   33   34 2
    60   33   35 1
    61   35   58 1
    62   35   59 1
    63   35   60 1
@<TRIPOS>MOLECULE
CHEMBL575298
   45    48     0     0     0
SMALL
USER_CHARGES

@<TRIPOS>ATOM
      1 C1         -0.6160    1.8135    0.9698 C.3       1 <0>         0.1045
      2 N1         -0.7342    0.3562    0.8779 N.pl3     1 <0>        -0.3705
      3 C2         -1.0764   -0.3435   -0.2244 C.2       1 <0>         0.0599
      4 C3         -1.0731   -1.6564    0.1000 C.2       1 <0>        -0.2620
      5 C4         -0.7149   -1.7649    1.4535 C.2       1 <0>         0.2999
      6 N2         -0.5060   -0.5550    1.9170 N.2       1 <0>        -0.3278
      7 N3         -0.5958   -2.9562    2.1801 N.pl3     1 <0>        -0.6002
      8 C5         -0.8399   -4.1668    1.5648 C.ar      1 <0>         0.4761
      9 C6         -0.7308   -5.3831    2.2830 C.ar      1 <0>        -0.1504
     10 C7         -0.3750   -5.4169    3.6355 C.ar      1 <0>        -0.0983
     11 C8         -0.2855   -6.6320    4.2806 C.ar      1 <0>         0.1225
     12 C9         -0.5463   -7.8218    3.5964 C.ar      1 <0>        -0.1243
     13 C10        -0.8938   -7.8114    2.2796 C.ar      1 <0>        -0.0621
     14 C11        -0.9940   -6.5924    1.5950 C.ar      1 <0>         0.1710
     15 N4         -1.3340   -6.5343    0.2980 N.ar      1 <0>        -0.5353
     16 C12        -1.4197   -5.3788   -0.3164 C.ar      1 <0>         0.3373
     17 N5         -1.1884   -4.2232    0.2865 N.ar      1 <0>        -0.5686
     18 O1          0.0601   -6.6728    5.5943 O.3       1 <0>        -0.2593
     19 C13         0.1380   -7.8891    6.1962 C.ar      1 <0>         0.1355
     20 C14        -1.0101   -8.4956    6.6917 C.ar      1 <0>         0.0784
     21 C15        -0.9269   -9.7330    7.3034 C.ar      1 <0>        -0.0895
     22 C16         0.2972  -10.3655    7.4223 C.ar      1 <0>        -0.1012
     23 C17         1.4400   -9.7635    6.9300 C.ar      1 <0>        -0.0183
     24 C18         1.3622   -8.5296    6.3121 C.ar      1 <0>        -0.6450
     25 S1          2.8191   -7.7678    5.6783 S.o2      1 <0>         2.4945
     26 O2          3.8585   -8.7015    5.9371 O.2       1 <0>        -0.9308
     27 O3          2.4875   -7.4040    4.3452 O.2       1 <0>        -0.9168
     28 C19         3.0472   -6.2816    6.6931 C.3       1 <0>        -0.6454
     29 F1         -2.2056   -7.8770    6.5762 F         1 <0>        -0.1189
     30 H1          0.4023    2.1119    0.7205 H         1 <0>         0.0744
     31 H2         -1.3121    2.2792    0.2721 H         1 <0>         0.0896
     32 H3         -0.8503    2.1338    1.9850 H         1 <0>         0.0880
     33 H4         -1.3112    0.0714   -1.1935 H         1 <0>         0.1781
     34 H5         -1.3051   -2.4760   -0.5640 H         1 <0>         0.1856
     35 H6         -0.3417   -2.9302    3.1158 H         1 <0>         0.4257
     36 H7         -0.1720   -4.5001    4.1690 H         1 <0>         0.1386
     37 H8         -0.4709   -8.7637    4.1194 H         1 <0>         0.1337
     38 H9         -1.0917   -8.7397    1.7643 H         1 <0>         0.1496
     39 H10        -1.6959   -5.3693   -1.3604 H         1 <0>         0.2002
     40 H11        -1.8183  -10.2055    7.6889 H         1 <0>         0.1553
     41 H12         0.3605  -11.3315    7.9010 H         1 <0>         0.1537
     42 H13         2.3944  -10.2601    7.0244 H         1 <0>         0.1633
     43 H14         3.1892   -6.5710    7.7344 H         1 <0>         0.1338
     44 H15         3.9238   -5.7351    6.3451 H         1 <0>         0.1376
     45 H16         2.1658   -5.6458    6.6096 H         1 <0>         0.1378
@<TRIPOS>BOND
     1    1    2 1
     2    1   30 1
     3    1   31 1
     4    1   32 1
     5    2    6 1
     6    2    3 1
     7    3    4 2
     8    3   33 1
     9    4    5 1
    10    4   34 1
    11    5    6 2
    12    5    7 1
    13    7    8 1
    14    7   35 1
    15    8   17 ar
    16    8    9 ar
    17    9   14 ar
    18    9   10 ar
    19   10   11 ar
    20   10   36 1
    21   11   12 ar
    22   11   18 1
    23   12   13 ar
    24   12   37 1
    25   13   14 ar
    26   13   38 1
    27   14   15 ar
    28   15   16 ar
    29   16   17 ar
    30   16   39 1
    31   18   19 1
    32   19   24 ar
    33   19   20 ar
    34   20   21 ar
    35   20   29 1
    36   21   22 ar
    37   21   40 1
    38   22   23 ar
    39   22   41 1
    40   23   24 ar
    41   23   42 1
    42   24   25 1
    43   25   26 2
    44   25   27 2
    45   25   28 1
    46   28   43 1
    47   28   44 1
    48   28   45 1
@<TRIPOS>MOLECULE
CHEMBL578022
   43    46     0     0     0
SMALL
USER_CHARGES

@<TRIPOS>ATOM
      1 C1         -1.6239   -0.9040   -0.1321 C.3       1 <0>        -0.6453
      2 S1         -0.0353   -0.0411    0.0164 S.o2      1 <0>         2.4943
      3 O1         -0.2182    1.3561   -0.1666 O.2       1 <0>        -0.9176
      4 O2          0.6882   -0.5366    1.1346 O.2       1 <0>        -0.9301
      5 C2          0.8950   -0.5604   -1.3870 C.ar      1 <0>        -0.6446
      6 C3          2.0507   -1.2988   -1.2158 C.ar      1 <0>        -0.0179
      7 C4          2.7815   -1.7075   -2.3156 C.ar      1 <0>        -0.1002
      8 C5          2.3591   -1.3791   -3.5909 C.ar      1 <0>        -0.0894
      9 C6          1.2036   -0.6405   -3.7685 C.ar      1 <0>         0.0792
     10 C7          0.4649   -0.2333   -2.6639 C.ar      1 <0>         0.1335
     11 O3         -0.6742    0.4884   -2.8349 O.3       1 <0>        -0.2591
     12 C8         -0.5597    1.8335   -2.9922 C.ar      1 <0>         0.1277
     13 C9          0.7054    2.4263   -2.9800 C.ar      1 <0>        -0.1272
     14 C10         0.8506    3.7715   -3.1354 C.ar      1 <0>        -0.0570
     15 C11        -0.2817    4.5789   -3.3110 C.ar      1 <0>         0.1647
     16 C12        -1.5669    3.9837   -3.3248 C.ar      1 <0>        -0.1440
     17 C13        -1.6924    2.5991   -3.1681 C.ar      1 <0>        -0.1062
     18 C14        -2.6919    4.8245   -3.5051 C.ar      1 <0>         0.4454
     19 N1         -2.4843    6.1260   -3.6519 N.ar      1 <0>        -0.5165
     20 C15        -1.2638    6.6376   -3.6321 C.ar      1 <0>         0.3295
     21 N2         -0.1862    5.9078   -3.4687 N.ar      1 <0>        -0.5264
     22 N3         -3.9705    4.3033   -3.5281 N.pl3     1 <0>        -0.6162
     23 C16        -5.0690    5.1564   -3.5975 C.ar      1 <0>         0.3218
     24 C17        -6.3594    4.6407   -3.5103 C.ar      1 <0>         0.0418
     25 N4         -7.3983    5.4520   -3.5765 N.ar      1 <0>        -0.4025
     26 C18        -7.2143    6.7540   -3.7256 C.ar      1 <0>         0.0794
     27 C19        -5.9332    7.2693   -3.8125 C.ar      1 <0>         0.1161
     28 N5         -4.8882    6.4626   -3.7414 N.ar      1 <0>        -0.4053
     29 Cl1        -8.5834    7.8178   -3.8128 Cl        1 <0>        -0.0117
     30 F1          0.7906   -0.3195   -5.0142 F         1 <0>        -0.1190
     31 H1         -2.0881   -0.6492   -1.0848 H         1 <0>         0.1376
     32 H2         -1.4586   -1.9804   -0.0848 H         1 <0>         0.1343
     33 H3         -2.2797   -0.6009    0.6842 H         1 <0>         0.1378
     34 H4          2.3835   -1.5566   -0.2212 H         1 <0>         0.1637
     35 H5          3.6844   -2.2841   -2.1787 H         1 <0>         0.1541
     36 H6          2.9321   -1.6993   -4.4485 H         1 <0>         0.1557
     37 H7          1.5810    1.8087   -2.8450 H         1 <0>         0.1346
     38 H8          1.8353    4.2149   -3.1229 H         1 <0>         0.1502
     39 H9         -2.6676    2.1351   -3.1812 H         1 <0>         0.1382
     40 H10        -1.1500    7.7044   -3.7562 H         1 <0>         0.2003
     41 H11        -4.1034    3.3430   -3.4958 H         1 <0>         0.4338
     42 H12        -6.5101    3.5782   -3.3891 H         1 <0>         0.1784
     43 H13        -5.7866    8.3323   -3.9344 H         1 <0>         0.1841
@<TRIPOS>BOND
     1    1    2 1
     2    1   31 1
     3    1   32 1
     4    1   33 1
     5    2    3 2
     6    2    4 2
     7    2    5 1
     8    5   10 ar
     9    5    6 ar
    10    6    7 ar
    11    6   34 1
    12    7    8 ar
    13    7   35 1
    14    8    9 ar
    15    8   36 1
    16    9   10 ar
    17    9   30 1
    18   10   11 1
    19   11   12 1
    20   12   17 ar
    21   12   13 ar
    22   13   14 ar
    23   13   37 1
    24   14   15 ar
    25   14   38 1
    26   15   21 ar
    27   15   16 ar
    28   16   17 ar
    29   16   18 ar
    30   17   39 1
    31   18   19 ar
    32   18   22 1
    33   19   20 ar
    34   20   21 ar
    35   20   40 1
    36   22   23 1
    37   22   41 1
    38   23   28 ar
    39   23   24 ar
    40   24   25 ar
    41   24   42 1
    42   25   26 ar
    43   26   27 ar
    44   26   29 1
    45   27   28 ar
    46   27   43 1
@<TRIPOS>MOLECULE
CHEMBL519273
   55    58     0     0     0
SMALL
USER_CHARGES

@<TRIPOS>ATOM
      1 C1          0.0151    1.5792   -0.2657 C.ar      1 <0>        -0.1278
      2 C2          1.1648    2.3130   -0.4906 C.ar      1 <0>        -0.0210
      3 C3          2.3850    1.6716   -0.5938 C.ar      1 <0>        -0.6510
      4 C4          2.4556    0.2965   -0.4717 C.ar      1 <0>        -0.0218
      5 C5          1.3060   -0.4373   -0.2459 C.ar      1 <0>        -0.1060
      6 C6          0.0856    0.2040   -0.1441 C.ar      1 <0>        -0.0163
      7 C7         -1.1677   -0.5960    0.1015 C.3       1 <0>        -0.0685
      8 H1         -2.0239    0.0767    0.1531 H         1 <0>         0.1214
      9 C8         -1.3696   -1.5917   -1.0424 C.3       1 <0>        -0.1077
     10 C9         -1.6232   -0.8285   -2.3440 C.3       1 <0>        -0.0911
     11 C10        -2.9643   -0.0938   -2.2543 C.3       1 <0>        -0.1545
     12 C11        -3.2464    0.6020   -3.5885 C.3       1 <0>         0.0588
     13 O1         -3.2467   -0.3670   -4.6388 O.3       1 <0>        -0.3814
     14 C12        -2.0032   -1.0523   -4.8007 C.3       1 <0>         0.0588
     15 C13        -1.6711   -1.8146   -3.5152 C.3       1 <0>        -0.1508
     16 C14        -1.0385   -1.3452    1.4027 C.2       1 <0>         0.5150
     17 O2         -0.0495   -1.2011    2.0899 O.2       1 <0>        -0.4506
     18 N1         -2.0220   -2.1754    1.8028 N.am      1 <0>        -0.6159
     19 C15        -1.8571   -2.9480    2.9477 C.2       1 <0>         0.3382
     20 N2         -0.8298   -3.0102    3.7760 N.2       1 <0>        -0.4858
     21 C16        -0.8441   -3.8089    4.8256 C.2       1 <0>         0.0389
     22 C17        -1.9307   -4.5853    5.0673 C.2       1 <0>        -0.0241
     23 S1         -2.9818   -4.1178    3.6981 S.3       1 <0>         0.0465
     24 F1         -2.1577   -5.4638    6.0682 F         1 <0>        -0.0663
     25 S2          3.8503    2.6068   -0.8816 S.o2      1 <0>         2.4930
     26 O3          4.7371    1.7024   -1.5257 O.2       1 <0>        -0.9371
     27 O4          3.4059    3.7820   -1.5456 O.2       1 <0>        -0.9336
     28 C18         4.4717    3.0204    0.7717 C.3       1 <0>        -0.5984
     29 C19         3.7064    4.1704    1.4475 C.3       1 <0>        -0.1155
     30 C20         5.0676    4.6711    1.9587 C.3       1 <0>        -0.1277
     31 C21         5.6965    3.9501    0.7547 C.3       1 <0>        -0.1139
     32 H2         -0.9376    2.0807   -0.1805 H         1 <0>         0.1336
     33 H3          1.1097    3.3873   -0.5860 H         1 <0>         0.1431
     34 H4          3.4088   -0.2047   -0.5531 H         1 <0>         0.1420
     35 H5          1.3610   -1.5117   -0.1512 H         1 <0>         0.1298
     36 H6         -0.4765   -2.2072   -1.1503 H         1 <0>         0.0807
     37 H7         -2.2259   -2.2292   -0.8223 H         1 <0>         0.0779
     38 H8         -0.8215   -0.1081   -2.5065 H         1 <0>         0.0808
     39 H9         -3.7583   -0.8097   -2.0418 H         1 <0>         0.0755
     40 H10        -2.9200    0.6493   -1.4581 H         1 <0>         0.0740
     41 H11        -4.2196    1.0910   -3.5448 H         1 <0>         0.0949
     42 H12        -2.4737    1.3463   -3.7808 H         1 <0>         0.0514
     43 H13        -2.0808   -1.7551   -5.6303 H         1 <0>         0.0955
     44 H14        -1.2142   -0.3296   -5.0088 H         1 <0>         0.0514
     45 H15        -0.7020   -2.3021   -3.6208 H         1 <0>         0.0757
     46 H16        -2.4390   -2.5652   -3.3282 H         1 <0>         0.0743
     47 H17        -2.8447   -2.2342    1.2923 H         1 <0>         0.4299
     48 H18         0.0063   -3.8451    5.4903 H         1 <0>         0.1837
     49 H19         4.5972    2.1444    1.4080 H         1 <0>         0.1548
     50 H20         3.2279    4.8502    0.7424 H         1 <0>         0.1033
     51 H21         3.0359    3.8416    2.2414 H         1 <0>         0.0874
     52 H22         5.1754    5.7552    1.9235 H         1 <0>         0.0807
     53 H23         5.3556    4.2471    2.9207 H         1 <0>         0.0899
     54 H24         6.6326    3.4434    0.9894 H         1 <0>         0.0912
     55 H25         5.7620    4.5697   -0.1397 H         1 <0>         0.0946
@<TRIPOS>BOND
     1    1    6 ar
     2    1    2 ar
     3    1   32 1
     4    2    3 ar
     5    2   33 1
     6    3    4 ar
     7    3   25 1
     8    4    5 ar
     9    4   34 1
    10    5    6 ar
    11    5   35 1
    12    6    7 1
    13    7    8 1
    14    7    9 1
    15    7   16 1
    16    9   10 1
    17    9   36 1
    18    9   37 1
    19   10   15 1
    20   10   11 1
    21   10   38 1
    22   11   12 1
    23   11   39 1
    24   11   40 1
    25   12   13 1
    26   12   41 1
    27   12   42 1
    28   13   14 1
    29   14   15 1
    30   14   43 1
    31   14   44 1
    32   15   45 1
    33   15   46 1
    34   16   17 2
    35   16   18 am
    36   18   19 1
    37   18   47 1
    38   19   23 1
    39   19   20 2
    40   20   21 1
    41   21   22 2
    42   21   48 1
    43   22   23 1
    44   22   24 1
    45   25   26 2
    46   25   27 2
    47   25   28 1
    48   28   31 1
    49   28   29 1
    50   28   49 1
    51   29   30 1
    52   29   50 1
    53   29   51 1
    54   30   31 1
    55   30   52 1
    56   30   53 1
    57   31   54 1
    58   31   55 1
@<TRIPOS>MOLECULE
CHEMBL194137
   57    59     0     0     0
SMALL
USER_CHARGES

@<TRIPOS>ATOM
      1 C1         -1.9863    1.1762    1.6156 C.3       1 <0>        -0.1474
      2 C2         -2.4680    0.1563    0.5818 C.3       1 <0>         0.0731
      3 C3         -3.2743    0.8722   -0.5036 C.3       1 <0>        -0.1816
      4 O1         -1.3398   -0.4900   -0.0111 O.3       1 <0>        -0.3074
      5 C4         -1.5393   -1.7334   -0.5223 C.ar      1 <0>         0.1674
      6 C5         -2.8158   -2.2703   -0.5571 C.ar      1 <0>        -0.1884
      7 C6         -3.0195   -3.5466   -1.0825 C.ar      1 <0>        -0.0477
      8 C7         -1.9353   -4.2769   -1.5711 C.ar      1 <0>        -0.1598
      9 C8         -0.6625   -3.7324   -1.5325 C.ar      1 <0>         0.1651
     10 C9         -0.4652   -2.4606   -1.0139 C.ar      1 <0>        -0.2238
     11 O2          0.3941   -4.4428   -2.0080 O.3       1 <0>        -0.3073
     12 C10         1.6786   -3.8206   -1.9374 C.3       1 <0>         0.0567
     13 C11         2.7350   -4.7647   -2.5150 C.3       1 <0>        -0.1132
     14 C12         4.1103   -4.0986   -2.4393 C.3       1 <0>        -0.0778
     15 C13         5.1508   -5.0285   -3.0082 C.ar      1 <0>        -0.0821
     16 C14         5.7939   -5.9331   -2.1842 C.ar      1 <0>        -0.1162
     17 C15         6.7484   -6.7861   -2.7060 C.ar      1 <0>        -0.1185
     18 C16         7.0594   -6.7348   -4.0520 C.ar      1 <0>        -0.1242
     19 C17         6.4156   -5.8308   -4.8761 C.ar      1 <0>        -0.1184
     20 C18         5.4581   -4.9808   -4.3551 C.ar      1 <0>        -0.1161
     21 C19        -4.3798   -4.1239   -1.1212 C.2       1 <0>         0.5451
     22 O3         -5.3228   -3.4865   -0.6948 O.2       1 <0>        -0.4590
     23 N1         -4.5744   -5.3569   -1.6292 N.am      1 <0>        -0.6515
     24 C20        -5.8620   -5.8569   -1.7633 C.ar      1 <0>         0.3352
     25 C21        -6.0596   -7.0849   -2.3914 C.ar      1 <0>        -0.2164
     26 C22        -7.3305   -7.5759   -2.5219 C.ar      1 <0>        -0.0207
     27 C23        -8.3971   -6.8168   -2.0133 C.ar      1 <0>        -0.2052
     28 C24        -8.1241   -5.5936   -1.3953 C.ar      1 <0>         0.1542
     29 N2         -6.8855   -5.1617   -1.2870 N.ar      1 <0>        -0.4860
     30 C25        -9.7822   -7.3023   -2.1299 C.2       1 <0>         0.5268
     31 O4        -10.0109   -8.3744   -2.6730 O.co2     1 <0>        -0.6872
     32 O5        -10.7044   -6.6337   -1.6836 O.co2     1 <0>        -0.6840
     33 H1         -2.8468    1.6692    2.0679 H         1 <0>         0.0791
     34 H2         -1.4119    0.6661    2.3889 H         1 <0>         0.0646
     35 H3         -1.3571    1.9198    1.1266 H         1 <0>         0.0663
     36 H4         -3.0972   -0.5873    1.0709 H         1 <0>         0.0798
     37 H5         -3.6175    0.1457   -1.2401 H         1 <0>         0.0662
     38 H6         -4.1348    1.3653   -0.0513 H         1 <0>         0.0754
     39 H7         -2.6451    1.6159   -0.9926 H         1 <0>         0.0665
     40 H8         -3.6521   -1.7019   -0.1776 H         1 <0>         0.1477
     41 H9         -2.0885   -5.2654   -1.9784 H         1 <0>         0.1365
     42 H10         0.5281   -2.0374   -0.9891 H         1 <0>         0.1395
     43 H11         1.6658   -2.8945   -2.5120 H         1 <0>         0.0659
     44 H12         1.9185   -3.5996   -0.8973 H         1 <0>         0.0658
     45 H13         2.7477   -5.6908   -1.9403 H         1 <0>         0.0773
     46 H14         2.4951   -4.9857   -3.5550 H         1 <0>         0.0773
     47 H15         4.0976   -3.1725   -3.0139 H         1 <0>         0.0766
     48 H16         4.3502   -3.8776   -1.3992 H         1 <0>         0.0766
     49 H17         5.5509   -5.9732   -1.1326 H         1 <0>         0.1219
     50 H18         7.2513   -7.4924   -2.0621 H         1 <0>         0.1217
     51 H19         7.8056   -7.4007   -4.4595 H         1 <0>         0.1208
     52 H20         6.6589   -5.7905   -5.9276 H         1 <0>         0.1218
     53 H21         4.9525   -4.2771   -4.9997 H         1 <0>         0.1220
     54 H22        -3.8144   -5.8949   -1.9011 H         1 <0>         0.4133
     55 H23        -5.2177   -7.6440   -2.7722 H         1 <0>         0.1275
     56 H24        -7.5091   -8.5251   -3.0053 H         1 <0>         0.1408
     57 H25        -8.9352   -4.9999   -1.0002 H         1 <0>         0.1657
@<TRIPOS>BOND
     1    1    2 1
     2    1   33 1
     3    1   34 1
     4    1   35 1
     5    2    3 1
     6    2    4 1
     7    2   36 1
     8    3   37 1
     9    3   38 1
    10    3   39 1
    11    4    5 1
    12    5   10 ar
    13    5    6 ar
    14    6    7 ar
    15    6   40 1
    16    7    8 ar
    17    7   21 1
    18    8    9 ar
    19    8   41 1
    20    9   10 ar
    21    9   11 1
    22   10   42 1
    23   11   12 1
    24   12   13 1
    25   12   43 1
    26   12   44 1
    27   13   14 1
    28   13   45 1
    29   13   46 1
    30   14   15 1
    31   14   47 1
    32   14   48 1
    33   15   20 ar
    34   15   16 ar
    35   16   17 ar
    36   16   49 1
    37   17   18 ar
    38   17   50 1
    39   18   19 ar
    40   18   51 1
    41   19   20 ar
    42   19   52 1
    43   20   53 1
    44   21   22 2
    45   21   23 am
    46   23   24 1
    47   23   54 1
    48   24   29 ar
    49   24   25 ar
    50   25   26 ar
    51   25   55 1
    52   26   27 ar
    53   26   56 1
    54   27   28 ar
    55   27   30 1
    56   28   29 ar
    57   28   57 1
    58   30   31 2
    59   30   32 1
@<TRIPOS>MOLECULE
CHEMBL575918
   46    49     0     0     0
SMALL
USER_CHARGES

@<TRIPOS>ATOM
      1 C1         -0.1076    1.4053    0.8356 C.3       1 <0>        -0.0970
      2 C2         -0.0770   -0.0968    0.7189 C.ar      1 <0>         0.0396
      3 C3         -0.0809   -0.8772    1.8600 C.ar      1 <0>         0.0904
      4 N1         -0.0546   -2.1952    1.7619 N.ar      1 <0>        -0.4161
      5 C4         -0.0244   -2.7693    0.5662 C.ar      1 <0>         0.3083
      6 C5         -0.0205   -1.9801   -0.5810 C.ar      1 <0>         0.0267
      7 N2         -0.0520   -0.6651   -0.4749 N.ar      1 <0>        -0.4120
      8 N3          0.0039   -4.1568    0.4588 N.pl3     1 <0>        -0.6189
      9 C6          0.1081   -4.9353    1.5947 C.ar      1 <0>         0.4485
     10 C7          0.2481   -6.3418    1.5024 C.ar      1 <0>        -0.1467
     11 C8          0.2873   -7.0045    0.2709 C.ar      1 <0>        -0.1041
     12 C9          0.4257   -8.3758    0.2455 C.ar      1 <0>         0.1251
     13 C10         0.5258   -9.1031    1.4342 C.ar      1 <0>        -0.1272
     14 C11         0.4899   -8.4780    2.6436 C.ar      1 <0>        -0.0583
     15 C12         0.3506   -7.0845    2.7038 C.ar      1 <0>         0.1649
     16 N4          0.3109   -6.4265    3.8727 N.ar      1 <0>        -0.5303
     17 C13         0.1797   -5.1219    3.8976 C.ar      1 <0>         0.3296
     18 N5          0.0854   -4.3860    2.8012 N.ar      1 <0>        -0.5174
     19 O1          0.4646   -9.0264   -0.9471 O.3       1 <0>        -0.2596
     20 C14         0.6019  -10.3787   -0.9321 C.ar      1 <0>         0.1344
     21 C15         1.8644  -10.9491   -0.8213 C.ar      1 <0>         0.0790
     22 C16         2.0002  -12.3252   -0.8059 C.ar      1 <0>        -0.0895
     23 C17         0.8810  -13.1323   -0.9006 C.ar      1 <0>        -0.1006
     24 C18        -0.3752  -12.5664   -1.0113 C.ar      1 <0>        -0.0180
     25 C19        -0.5177  -11.1916   -1.0215 C.ar      1 <0>        -0.6447
     26 S1         -2.1207  -10.4725   -1.1547 S.o2      1 <0>         2.4942
     27 O2         -3.0105  -11.5788   -1.2152 O.2       1 <0>        -0.9304
     28 O3         -2.1918   -9.5436   -0.0816 O.2       1 <0>        -0.9172
     29 C20        -2.1072   -9.5940   -2.7417 C.3       1 <0>        -0.6454
     30 F1          2.9574  -10.1604   -0.7293 F         1 <0>        -0.1190
     31 H1         -1.1424    1.7475    0.8518 H         1 <0>         0.0801
     32 H2          0.3897    1.7083    1.7570 H         1 <0>         0.0792
     33 H3          0.4077    1.8466   -0.0175 H         1 <0>         0.0782
     34 H4         -0.1051   -0.4093    2.8331 H         1 <0>         0.1732
     35 H5          0.0040   -2.4435   -1.5562 H         1 <0>         0.1680
     36 H6         -0.0496   -4.5769   -0.4139 H         1 <0>         0.4314
     37 H7          0.2097   -6.4471   -0.6509 H         1 <0>         0.1376
     38 H8          0.6330  -10.1770    1.3933 H         1 <0>         0.1339
     39 H9          0.5682   -9.0542    3.5536 H         1 <0>         0.1494
     40 H10         0.1511   -4.6249    4.8560 H         1 <0>         0.1988
     41 H11         2.9806  -12.7699   -0.7203 H         1 <0>         0.1555
     42 H12         0.9889  -14.2068   -0.8885 H         1 <0>         0.1539
     43 H13        -1.2471  -13.1994   -1.0854 H         1 <0>         0.1635
     44 H14        -2.0027  -10.3131   -3.5541 H         1 <0>         0.1343
     45 H15        -3.0409   -9.0444   -2.8607 H         1 <0>         0.1377
     46 H16        -1.2698   -8.8966   -2.7638 H         1 <0>         0.1375
@<TRIPOS>BOND
     1    1    2 1
     2    1   31 1
     3    1   32 1
     4    1   33 1
     5    2    7 ar
     6    2    3 ar
     7    3    4 ar
     8    3   34 1
     9    4    5 ar
    10    5    6 ar
    11    5    8 1
    12    6    7 ar
    13    6   35 1
    14    8    9 1
    15    8   36 1
    16    9   18 ar
    17    9   10 ar
    18   10   15 ar
    19   10   11 ar
    20   11   12 ar
    21   11   37 1
    22   12   13 ar
    23   12   19 1
    24   13   14 ar
    25   13   38 1
    26   14   15 ar
    27   14   39 1
    28   15   16 ar
    29   16   17 ar
    30   17   18 ar
    31   17   40 1
    32   19   20 1
    33   20   25 ar
    34   20   21 ar
    35   21   22 ar
    36   21   30 1
    37   22   23 ar
    38   22   41 1
    39   23   24 ar
    40   23   42 1
    41   24   25 ar
    42   24   43 1
    43   25   26 1
    44   26   27 2
    45   26   28 2
    46   26   29 1
    47   29   44 1
    48   29   45 1
    49   29   46 1
@<TRIPOS>MOLECULE
CHEMBL372860
   54    56     0     0     0
SMALL
USER_CHARGES

@<TRIPOS>ATOM
      1 C1         -1.9863    1.1762    1.6156 C.3       1 <0>        -0.1475
      2 C2         -2.4680    0.1563    0.5818 C.3       1 <0>         0.0730
      3 C3         -3.2743    0.8722   -0.5036 C.3       1 <0>        -0.1816
      4 O1         -1.3398   -0.4900   -0.0111 O.3       1 <0>        -0.3073
      5 C4         -1.5393   -1.7334   -0.5223 C.ar      1 <0>         0.1676
      6 C5         -2.8158   -2.2703   -0.5571 C.ar      1 <0>        -0.1880
      7 C6         -3.0195   -3.5466   -1.0825 C.ar      1 <0>        -0.0478
      8 C7         -1.9353   -4.2769   -1.5711 C.ar      1 <0>        -0.1594
      9 C8         -0.6625   -3.7324   -1.5325 C.ar      1 <0>         0.1653
     10 C9         -0.4652   -2.4606   -1.0139 C.ar      1 <0>        -0.2233
     11 O2          0.3941   -4.4428   -2.0080 O.3       1 <0>        -0.3077
     12 C10         1.6786   -3.8206   -1.9374 C.3       1 <0>         0.0633
     13 C11         2.7350   -4.7647   -2.5150 C.3       1 <0>        -0.0792
     14 C12         4.0896   -4.1086   -2.4404 C.ar      1 <0>        -0.0850
     15 C13         4.5386   -3.3289   -3.4898 C.ar      1 <0>        -0.1129
     16 C14         5.7812   -2.7270   -3.4215 C.ar      1 <0>        -0.1186
     17 C15         6.5746   -2.9046   -2.3035 C.ar      1 <0>        -0.1207
     18 C16         6.1252   -3.6836   -1.2537 C.ar      1 <0>        -0.1187
     19 C17         4.8809   -4.2819   -1.3202 C.ar      1 <0>        -0.1129
     20 C18        -4.3798   -4.1239   -1.1212 C.2       1 <0>         0.5452
     21 O3         -5.3228   -3.4865   -0.6948 O.2       1 <0>        -0.4589
     22 N1         -4.5744   -5.3569   -1.6292 N.am      1 <0>        -0.6515
     23 C19        -5.8620   -5.8569   -1.7633 C.ar      1 <0>         0.3352
     24 C20        -6.0596   -7.0849   -2.3914 C.ar      1 <0>        -0.2164
     25 C21        -7.3305   -7.5759   -2.5219 C.ar      1 <0>        -0.0207
     26 C22        -8.3971   -6.8168   -2.0133 C.ar      1 <0>        -0.2053
     27 C23        -8.1241   -5.5936   -1.3953 C.ar      1 <0>         0.1542
     28 N2         -6.8855   -5.1617   -1.2870 N.ar      1 <0>        -0.4860
     29 C24        -9.7822   -7.3023   -2.1299 C.2       1 <0>         0.5268
     30 O4        -10.0109   -8.3744   -2.6730 O.co2     1 <0>        -0.6872
     31 O5        -10.7044   -6.6337   -1.6836 O.co2     1 <0>        -0.6840
     32 H1         -2.8468    1.6692    2.0679 H         1 <0>         0.0791
     33 H2         -1.4119    0.6661    2.3889 H         1 <0>         0.0646
     34 H3         -1.3571    1.9198    1.1266 H         1 <0>         0.0663
     35 H4         -3.0972   -0.5873    1.0709 H         1 <0>         0.0798
     36 H5         -3.6175    0.1457   -1.2401 H         1 <0>         0.0662
     37 H6         -4.1348    1.3653   -0.0513 H         1 <0>         0.0755
     38 H7         -2.6451    1.6159   -0.9926 H         1 <0>         0.0664
     39 H8         -3.6521   -1.7019   -0.1776 H         1 <0>         0.1478
     40 H9         -2.0885   -5.2654   -1.9784 H         1 <0>         0.1369
     41 H10         0.5281   -2.0374   -0.9891 H         1 <0>         0.1392
     42 H11         1.6658   -2.8945   -2.5120 H         1 <0>         0.0668
     43 H12         1.9185   -3.5996   -0.8973 H         1 <0>         0.0667
     44 H13         2.7477   -5.6908   -1.9403 H         1 <0>         0.0860
     45 H14         2.4951   -4.9857   -3.5550 H         1 <0>         0.0861
     46 H15         3.9187   -3.1901   -4.3633 H         1 <0>         0.1239
     47 H16         6.1323   -2.1184   -4.2417 H         1 <0>         0.1231
     48 H17         7.5457   -2.4350   -2.2504 H         1 <0>         0.1218
     49 H18         6.7453   -3.8226   -0.3804 H         1 <0>         0.1230
     50 H19         4.5282   -4.8875   -0.4985 H         1 <0>         0.1238
     51 H20        -3.8144   -5.8949   -1.9011 H         1 <0>         0.4133
     52 H21        -5.2177   -7.6440   -2.7722 H         1 <0>         0.1275
     53 H22        -7.5091   -8.5251   -3.0053 H         1 <0>         0.1408
     54 H23        -8.9352   -4.9999   -1.0002 H         1 <0>         0.1657
@<TRIPOS>BOND
     1    1    2 1
     2    1   32 1
     3    1   33 1
     4    1   34 1
     5    2    3 1
     6    2    4 1
     7    2   35 1
     8    3   36 1
     9    3   37 1
    10    3   38 1
    11    4    5 1
    12    5   10 ar
    13    5    6 ar
    14    6    7 ar
    15    6   39 1
    16    7    8 ar
    17    7   20 1
    18    8    9 ar
    19    8   40 1
    20    9   10 ar
    21    9   11 1
    22   10   41 1
    23   11   12 1
    24   12   13 1
    25   12   42 1
    26   12   43 1
    27   13   14 1
    28   13   44 1
    29   13   45 1
    30   14   19 ar
    31   14   15 ar
    32   15   16 ar
    33   15   46 1
    34   16   17 ar
    35   16   47 1
    36   17   18 ar
    37   17   48 1
    38   18   19 ar
    39   18   49 1
    40   19   50 1
    41   20   21 2
    42   20   22 am
    43   22   23 1
    44   22   51 1
    45   23   28 ar
    46   23   24 ar
    47   24   25 ar
    48   24   52 1
    49   25   26 ar
    50   25   53 1
    51   26   27 ar
    52   26   29 1
    53   27   28 ar
    54   27   54 1
    55   29   30 2
    56   29   31 1
@<TRIPOS>MOLECULE
CHEMBL491121
   34    36     0     0     0
SMALL
USER_CHARGES

@<TRIPOS>ATOM
      1 C1         -1.6433    2.4026    1.7602 C.3       1 <0>         0.0710
      2 N1         -2.3341    1.2363    2.3159 N.pl3     1 <0>        -0.4687
      3 C2         -3.6845    1.0420    2.4056 C.2       1 <0>         0.1585
      4 N2         -3.8730   -0.1218    2.9607 N.2       1 <0>        -0.2896
      5 N3         -2.7424   -0.6724    3.2261 N.2       1 <0>        -0.2848
      6 C3         -1.7630    0.1150    2.8463 C.2       1 <0>         0.1339
      7 S1         -0.0380   -0.2113    2.9965 S.3       1 <0>         0.1070
      8 C4          0.0325   -1.7322    3.8833 C.ar      1 <0>        -0.2099
      9 C5          0.1463   -2.9346    3.1910 C.ar      1 <0>         0.0299
     10 C6          0.2027   -4.1303    3.8756 C.ar      1 <0>        -0.2144
     11 C7          0.1462   -4.1430    5.2637 C.ar      1 <0>         0.3210
     12 C8          0.0315   -2.9348    5.9681 C.ar      1 <0>        -0.2393
     13 C9         -0.0197   -1.7275    5.2663 C.ar      1 <0>         0.0387
     14 C10        -0.0297   -2.9388    7.4408 C.2       1 <0>         0.5761
     15 O1         -0.0940   -3.9929    8.0439 O.2       1 <0>        -0.4826
     16 N4         -0.0145   -1.7743    8.1190 N.am      1 <0>        -0.6180
     17 C11        -0.0721   -1.7780    9.5068 C.2       1 <0>         0.2715
     18 N5         -0.1384   -2.8105   10.3195 N.2       1 <0>        -0.5207
     19 C12        -0.1871   -2.6463   11.6286 C.2       1 <0>         0.0624
     20 C13        -0.1656   -1.3721   12.0909 C.2       1 <0>        -0.2430
     21 S2         -0.0667   -0.4632   10.5574 S.3       1 <0>         0.1106
     22 N6          0.2028   -5.3499    5.9533 N.pl3     1 <0>        -0.8419
     23 H1         -1.4748    2.2512    0.6940 H         1 <0>         0.0864
     24 H2         -2.2553    3.2923    1.9086 H         1 <0>         0.0969
     25 H3         -0.6857    2.5321    2.2646 H         1 <0>         0.0936
     26 H4         -4.4527    1.7265    2.0774 H         1 <0>         0.2226
     27 H5          0.1904   -2.9310    2.1119 H         1 <0>         0.1393
     28 H6          0.2907   -5.0590    3.3315 H         1 <0>         0.1396
     29 H7         -0.1035   -0.7933    5.8017 H         1 <0>         0.1299
     30 H8          0.0368   -0.9335    7.6380 H         1 <0>         0.4256
     31 H9         -0.2419   -3.4895   12.3012 H         1 <0>         0.1771
     32 H10        -0.1958   -1.0074   13.1071 H         1 <0>         0.2004
     33 H11         0.3614   -6.1768    5.4715 H         1 <0>         0.4006
     34 H12         0.0835   -5.3647    6.9158 H         1 <0>         0.4205
@<TRIPOS>BOND
     1    1    2 1
     2    1   23 1
     3    1   24 1
     4    1   25 1
     5    2    6 1
     6    2    3 1
     7    3    4 2
     8    3   26 1
     9    4    5 1
    10    5    6 2
    11    6    7 1
    12    7    8 1
    13    8   13 ar
    14    8    9 ar
    15    9   10 ar
    16    9   27 1
    17   10   11 ar
    18   10   28 1
    19   11   12 ar
    20   11   22 1
    21   12   13 ar
    22   12   14 1
    23   13   29 1
    24   14   15 2
    25   14   16 am
    26   16   17 1
    27   16   30 1
    28   17   21 1
    29   17   18 2
    30   18   19 1
    31   19   20 2
    32   19   31 1
    33   20   21 1
    34   20   32 1
    35   22   33 1
    36   22   34 1
@<TRIPOS>MOLECULE
CHEMBL491148
   37    39     0     0     0
SMALL
USER_CHARGES

@<TRIPOS>ATOM
      1 C1         -0.0154    1.5010    0.1232 C.3       1 <0>        -0.0602
      2 C2          0.0045   -0.0055    0.0915 C.2       1 <0>        -0.2097
      3 C3         -1.0280   -0.8833    0.0536 C.2       1 <0>         0.0558
      4 N1         -0.7232   -2.1676    0.0311 N.2       1 <0>        -0.5150
      5 C4          0.5295   -2.5694    0.0450 C.2       1 <0>         0.2654
      6 S1          1.3944   -1.1262    0.0854 S.3       1 <0>         0.1104
      7 N2          1.0194   -3.8690    0.0256 N.am      1 <0>        -0.6177
      8 C5          0.1651   -4.9107   -0.0132 C.2       1 <0>         0.5761
      9 O1         -1.0346   -4.7128   -0.0311 O.2       1 <0>        -0.4836
     10 C6          0.6850   -6.2897   -0.0339 C.ar      1 <0>        -0.2394
     11 C7          2.0592   -6.5208   -0.1386 C.ar      1 <0>         0.0395
     12 C8          2.5399   -7.8185   -0.1569 C.ar      1 <0>        -0.2099
     13 C9          1.6587   -8.8928   -0.0713 C.ar      1 <0>         0.0289
     14 C10         0.3011   -8.6741    0.0318 C.ar      1 <0>        -0.2143
     15 C11        -0.1969   -7.3773    0.0574 C.ar      1 <0>         0.3211
     16 N3         -1.5662   -7.1579    0.1678 N.pl3     1 <0>        -0.8419
     17 S2          4.2723   -8.1117   -0.2895 S.3       1 <0>         0.1067
     18 C12         4.8012   -8.3031    1.3803 C.2       1 <0>         0.1343
     19 N4          4.0631   -8.1509    2.4553 N.2       1 <0>        -0.2850
     20 N5          4.7717   -8.3673    3.5055 N.2       1 <0>        -0.2898
     21 C13         5.9936   -8.6679    3.1666 C.2       1 <0>         0.1584
     22 N6          6.0550   -8.6437    1.8010 N.pl3     1 <0>        -0.4686
     23 C14         7.2239   -8.9223    0.9630 C.3       1 <0>         0.0710
     24 H1          1.0073    1.8775    0.1448 H         1 <0>         0.0735
     25 H2         -0.5222    1.8765   -0.7657 H         1 <0>         0.0825
     26 H3         -0.5457    1.8387    1.0137 H         1 <0>         0.0825
     27 H4         -2.0542   -0.5468    0.0426 H         1 <0>         0.1754
     28 H5          1.9764   -4.0268    0.0398 H         1 <0>         0.4255
     29 H6          2.7444   -5.6887   -0.2054 H         1 <0>         0.1319
     30 H7          2.0404   -9.9030   -0.0861 H         1 <0>         0.1369
     31 H8         -0.3763   -9.5127    0.0975 H         1 <0>         0.1390
     32 H9         -1.9199   -6.2570    0.1020 H         1 <0>         0.4205
     33 H10        -2.1673   -7.9057    0.3105 H         1 <0>         0.4005
     34 H11         6.8063   -8.8977    3.8398 H         1 <0>         0.2225
     35 H12         7.7732   -7.9975    0.7866 H         1 <0>         0.0863
     36 H13         7.8713   -9.6386    1.4689 H         1 <0>         0.0969
     37 H14         6.8969   -9.3380    0.0099 H         1 <0>         0.0937
@<TRIPOS>BOND
     1    1    2 1
     2    1   24 1
     3    1   25 1
     4    1   26 1
     5    2    6 1
     6    2    3 2
     7    3    4 1
     8    3   27 1
     9    4    5 2
    10    5    6 1
    11    5    7 1
    12    7    8 am
    13    7   28 1
    14    8    9 2
    15    8   10 1
    16   10   15 ar
    17   10   11 ar
    18   11   12 ar
    19   11   29 1
    20   12   13 ar
    21   12   17 1
    22   13   14 ar
    23   13   30 1
    24   14   15 ar
    25   14   31 1
    26   15   16 1
    27   16   32 1
    28   16   33 1
    29   17   18 1
    30   18   22 1
    31   18   19 2
    32   19   20 1
    33   20   21 2
    34   21   22 1
    35   21   34 1
    36   22   23 1
    37   23   35 1
    38   23   36 1
    39   23   37 1
@<TRIPOS>MOLECULE
CHEMBL205627
   61    63     0     0     0
SMALL
USER_CHARGES

@<TRIPOS>ATOM
      1 C1          1.7382   -2.4467    0.8145 C.3       1 <0>        -0.1806
      2 C2          1.4582   -0.9752    1.1262 C.3       1 <0>         0.0828
      3 H1          1.9187   -0.7115    2.0783 H         1 <0>         0.0820
      4 C3          2.0428   -0.0987    0.0167 C.3       1 <0>        -0.0746
      5 C4          1.8758    1.3535    0.3832 C.ar      1 <0>        -0.0863
      6 C5          0.7325    2.0339    0.0079 C.ar      1 <0>        -0.1021
      7 C6          0.5792    3.3659    0.3441 C.ar      1 <0>        -0.1223
      8 C7          1.5690    4.0175    1.0559 C.ar      1 <0>        -0.1226
      9 C8          2.7119    3.3368    1.4319 C.ar      1 <0>        -0.1191
     10 C9          2.8633    2.0036    1.0995 C.ar      1 <0>        -0.1162
     11 O1          0.0469   -0.7652    1.2053 O.3       1 <0>        -0.3012
     12 C10        -0.5555   -1.0601    2.3873 C.ar      1 <0>         0.1716
     13 C11         0.2078   -1.4616    3.4714 C.ar      1 <0>        -0.1893
     14 C12        -0.4116   -1.7635    4.6845 C.ar      1 <0>        -0.0466
     15 C13        -1.7984   -1.6595    4.8002 C.ar      1 <0>        -0.1608
     16 C14        -2.5538   -1.2574    3.7114 C.ar      1 <0>         0.1663
     17 C15        -1.9332   -0.9530    2.5083 C.ar      1 <0>        -0.2273
     18 O2         -3.9045   -1.1558    3.8229 O.3       1 <0>        -0.2934
     19 C16        -4.6293   -0.8146    2.6396 C.3       1 <0>         0.0823
     20 H2         -4.0534   -0.0973    2.0549 H         1 <0>         0.0892
     21 C17        -4.8693   -2.0756    1.8071 C.3       1 <0>        -0.1760
     22 C18        -5.9739   -0.1950    3.0259 C.3       1 <0>         0.0658
     23 O3         -6.7754   -1.1731    3.6914 O.3       1 <0>        -0.3791
     24 C19        -8.0593   -0.6943    4.0968 C.3       1 <0>         0.0301
     25 C20         0.3988   -2.1929    5.8438 C.2       1 <0>         0.5462
     26 O4          1.6065   -2.2832    5.7411 O.2       1 <0>        -0.4604
     27 N1         -0.2015   -2.4841    7.0148 N.am      1 <0>        -0.6520
     28 C21         0.5652   -2.7844    8.1318 C.ar      1 <0>         0.3362
     29 C22        -0.0632   -3.1964    9.3053 C.ar      1 <0>        -0.2165
     30 C23         0.6955   -3.4924   10.4054 C.ar      1 <0>        -0.0206
     31 C24         2.0913   -3.3687   10.3092 C.ar      1 <0>        -0.2056
     32 C25         2.6527   -2.9500    9.1000 C.ar      1 <0>         0.1545
     33 N2          1.8853   -2.6805    8.0652 N.ar      1 <0>        -0.4868
     34 C26         2.9500   -3.6752   11.4652 C.2       1 <0>         0.5269
     35 O5          2.4488   -4.0407   12.5197 O.co2     1 <0>        -0.6874
     36 O6          4.1647   -3.5644   11.3713 O.co2     1 <0>        -0.6841
     37 H3          1.2777   -2.7105   -0.1376 H         1 <0>         0.0677
     38 H4          2.8147   -2.6069    0.7542 H         1 <0>         0.0760
     39 H5          1.3217   -3.0712    1.6049 H         1 <0>         0.0672
     40 H6          3.1026   -0.3235   -0.1034 H         1 <0>         0.0950
     41 H7          1.5204   -0.2999   -0.9185 H         1 <0>         0.0845
     42 H8         -0.0409    1.5248   -0.5482 H         1 <0>         0.1214
     43 H9         -0.3137    3.8977    0.0503 H         1 <0>         0.1193
     44 H10         1.4496    5.0584    1.3179 H         1 <0>         0.1194
     45 H11         3.4854    3.8459    1.9877 H         1 <0>         0.1217
     46 H12         3.7545    1.4708    1.3965 H         1 <0>         0.1221
     47 H13         1.2808   -1.5411    3.3774 H         1 <0>         0.1462
     48 H14        -2.2820   -1.8927    5.7373 H         1 <0>         0.1358
     49 H15        -2.5249   -0.6357    1.6623 H         1 <0>         0.1401
     50 H16        -5.4222   -1.8154    0.9045 H         1 <0>         0.0701
     51 H17        -3.9114   -2.5170    1.5318 H         1 <0>         0.0638
     52 H18        -5.4452   -2.7929    2.3918 H         1 <0>         0.0783
     53 H19        -5.8059    0.6513    3.6920 H         1 <0>         0.0608
     54 H20        -6.4883    0.1461    2.1276 H         1 <0>         0.0701
     55 H21        -8.6057   -1.4959    4.5939 H         1 <0>         0.0878
     56 H22        -7.9347    0.1417    4.7851 H         1 <0>         0.0426
     57 H23        -8.6170   -0.3636    3.2206 H         1 <0>         0.0402
     58 H24        -1.1695   -2.4838    7.0769 H         1 <0>         0.4135
     59 H25        -1.1390   -3.2810    9.3466 H         1 <0>         0.1275
     60 H26         0.2315   -3.8134   11.3263 H         1 <0>         0.1406
     61 H27         3.7245   -2.8504    9.0128 H         1 <0>         0.1655
@<TRIPOS>BOND
     1    1    2 1
     2    1   37 1
     3    1   38 1
     4    1   39 1
     5    2    3 1
     6    2    4 1
     7    2   11 1
     8    4    5 1
     9    4   40 1
    10    4   41 1
    11    5   10 ar
    12    5    6 ar
    13    6    7 ar
    14    6   42 1
    15    7    8 ar
    16    7   43 1
    17    8    9 ar
    18    8   44 1
    19    9   10 ar
    20    9   45 1
    21   10   46 1
    22   11   12 1
    23   12   17 ar
    24   12   13 ar
    25   13   14 ar
    26   13   47 1
    27   14   15 ar
    28   14   25 1
    29   15   16 ar
    30   15   48 1
    31   16   17 ar
    32   16   18 1
    33   17   49 1
    34   18   19 1
    35   19   20 1
    36   19   21 1
    37   19   22 1
    38   21   50 1
    39   21   51 1
    40   21   52 1
    41   22   23 1
    42   22   53 1
    43   22   54 1
    44   23   24 1
    45   24   55 1
    46   24   56 1
    47   24   57 1
    48   25   26 2
    49   25   27 am
    50   27   28 1
    51   27   58 1
    52   28   33 ar
    53   28   29 ar
    54   29   30 ar
    55   29   59 1
    56   30   31 ar
    57   30   60 1
    58   31   32 ar
    59   31   34 1
    60   32   33 ar
    61   32   61 1
    62   34   35 2
    63   34   36 1
@<TRIPOS>MOLECULE
CHEMBL439344
   57    59     0     0     0
SMALL
USER_CHARGES

@<TRIPOS>ATOM
      1 C1         -0.1923   -2.0288    2.9109 C.3       1 <0>        -0.1829
      2 C2          0.1062   -0.5336    2.7833 C.3       1 <0>         0.0849
      3 H1          0.8206   -0.2388    3.5519 H         1 <0>         0.0803
      4 C3         -1.1890    0.2618    2.9589 C.3       1 <0>        -0.0754
      5 C4         -0.8773    1.7362    2.9558 C.ar      1 <0>        -0.0855
      6 C5         -0.5850    2.3833    4.1419 C.ar      1 <0>        -0.1167
      7 C6         -0.2991    3.7357    4.1391 C.ar      1 <0>        -0.1196
      8 C7         -0.3051    4.4410    2.9502 C.ar      1 <0>        -0.1230
      9 C8         -0.5966    3.7938    1.7641 C.ar      1 <0>        -0.1219
     10 C9         -0.8782    2.4404    1.7663 C.ar      1 <0>        -0.1018
     11 O1          0.6580   -0.2665    1.4925 O.3       1 <0>        -0.3014
     12 C10         1.9957   -0.4534    1.3426 C.ar      1 <0>         0.1707
     13 C11         2.7393   -0.9922    2.3798 C.ar      1 <0>        -0.1892
     14 C12         4.1125   -1.1841    2.2247 C.ar      1 <0>        -0.0476
     15 C13         4.7310   -0.8320    1.0242 C.ar      1 <0>        -0.1622
     16 C14         3.9800   -0.2941   -0.0075 C.ar      1 <0>         0.1668
     17 C15         2.6137   -0.1098    0.1492 C.ar      1 <0>        -0.2254
     18 O2          4.5813    0.0491   -1.1770 O.3       1 <0>        -0.3034
     19 C16         3.7480    0.6051   -2.1961 C.3       1 <0>         0.0744
     20 C17         3.5705    2.1044   -1.9482 C.3       1 <0>        -0.1812
     21 C18         4.4003    0.3880   -3.5630 C.3       1 <0>        -0.1489
     22 C19         4.9101   -1.7582    3.3290 C.2       1 <0>         0.5461
     23 O3          4.3698   -2.0638    4.3739 O.2       1 <0>        -0.4600
     24 N1          6.2365   -1.9427    3.1770 N.am      1 <0>        -0.6520
     25 C20         6.9669   -2.5785    4.1711 C.ar      1 <0>         0.3360
     26 C21         8.3521   -2.6716    4.0520 C.ar      1 <0>        -0.2167
     27 C22         9.0702   -3.2988    5.0340 C.ar      1 <0>        -0.0206
     28 C23         8.3776   -3.8295    6.1346 C.ar      1 <0>        -0.2055
     29 C24         6.9873   -3.6991    6.1875 C.ar      1 <0>         0.1546
     30 N2          6.3371   -3.0835    5.2228 N.ar      1 <0>        -0.4868
     31 C25         9.1055   -4.5136    7.2163 C.2       1 <0>         0.5268
     32 O4         10.3227   -4.6231    7.1606 O.co2     1 <0>        -0.6873
     33 O5          8.4932   -4.9726    8.1708 O.co2     1 <0>        -0.6840
     34 H2          0.7304   -2.5954    2.7859 H         1 <0>         0.0692
     35 H3         -0.6132   -2.2325    3.8955 H         1 <0>         0.0763
     36 H4         -0.9067   -2.3236    2.1423 H         1 <0>         0.0681
     37 H5         -1.8700    0.0327    2.1392 H         1 <0>         0.0848
     38 H6         -1.6561   -0.0089    3.9058 H         1 <0>         0.0951
     39 H7         -0.5803    1.8323    5.0707 H         1 <0>         0.1218
     40 H8         -0.0714    4.2414    5.0658 H         1 <0>         0.1213
     41 H9         -0.0824    5.4978    2.9482 H         1 <0>         0.1193
     42 H10        -0.6016    4.3449    0.8353 H         1 <0>         0.1195
     43 H11        -1.1023    1.9339    0.8391 H         1 <0>         0.1216
     44 H12         2.2568   -1.2629    3.3074 H         1 <0>         0.1465
     45 H13         5.7937   -0.9786    0.9001 H         1 <0>         0.1354
     46 H14         2.0303    0.3061   -0.6589 H         1 <0>         0.1407
     47 H15         2.7742    0.1158   -2.1764 H         1 <0>         0.0762
     48 H16         4.5443    2.5938   -1.9679 H         1 <0>         0.0682
     49 H17         2.9349    2.5285   -2.7256 H         1 <0>         0.0720
     50 H18         3.1058    2.2591   -0.9744 H         1 <0>         0.0643
     51 H19         4.5268   -0.6802   -3.7396 H         1 <0>         0.0661
     52 H20         3.7647    0.8120   -4.3404 H         1 <0>         0.0771
     53 H21         5.3741    0.8773   -3.5827 H         1 <0>         0.0680
     54 H22         6.6805   -1.6312    2.3729 H         1 <0>         0.4132
     55 H23         8.8546   -2.2531    3.1924 H         1 <0>         0.1274
     56 H24        10.1446   -3.3839    4.9641 H         1 <0>         0.1407
     57 H25         6.4427   -4.1030    7.0281 H         1 <0>         0.1656
@<TRIPOS>BOND
     1    1    2 1
     2    1   34 1
     3    1   35 1
     4    1   36 1
     5    2    3 1
     6    2    4 1
     7    2   11 1
     8    4    5 1
     9    4   37 1
    10    4   38 1
    11    5   10 ar
    12    5    6 ar
    13    6    7 ar
    14    6   39 1
    15    7    8 ar
    16    7   40 1
    17    8    9 ar
    18    8   41 1
    19    9   10 ar
    20    9   42 1
    21   10   43 1
    22   11   12 1
    23   12   17 ar
    24   12   13 ar
    25   13   14 ar
    26   13   44 1
    27   14   15 ar
    28   14   22 1
    29   15   16 ar
    30   15   45 1
    31   16   17 ar
    32   16   18 1
    33   17   46 1
    34   18   19 1
    35   19   20 1
    36   19   21 1
    37   19   47 1
    38   20   48 1
    39   20   49 1
    40   20   50 1
    41   21   51 1
    42   21   52 1
    43   21   53 1
    44   22   23 2
    45   22   24 am
    46   24   25 1
    47   24   54 1
    48   25   30 ar
    49   25   26 ar
    50   26   27 ar
    51   26   55 1
    52   27   28 ar
    53   27   56 1
    54   28   29 ar
    55   28   31 1
    56   29   30 ar
    57   29   57 1
    58   31   32 2
    59   31   33 1
@<TRIPOS>MOLECULE
CHEMBL594382
   54    58     0     0     0
SMALL
USER_CHARGES

@<TRIPOS>ATOM
      1 C1         -2.2977    1.3109    1.8113 C.3       1 <0>        -0.1514
      2 C2         -2.1431   -0.2062    1.6873 C.3       1 <0>        -0.6072
      3 S1         -1.6130   -0.6244    0.0036 S.o2      1 <0>         2.4941
      4 O1         -2.6526   -0.3387   -0.9220 O.2       1 <0>        -0.9310
      5 O2         -0.2911   -0.1551   -0.2241 O.2       1 <0>        -0.9309
      6 C3         -1.4741   -2.3809   -0.0043 C.ar      1 <0>        -0.6637
      7 C4         -0.2755   -2.9799    0.3368 C.ar      1 <0>        -0.0068
      8 C5         -0.1640   -4.3568    0.3319 C.ar      1 <0>        -0.1572
      9 C6         -1.2563   -5.1388   -0.0158 C.ar      1 <0>         0.1408
     10 C7         -2.4580   -4.5351   -0.3577 C.ar      1 <0>        -0.1392
     11 C8         -2.5656   -3.1579   -0.3460 C.ar      1 <0>        -0.0058
     12 O3         -1.1492   -6.4933   -0.0219 O.3       1 <0>        -0.2491
     13 C9         -0.9794   -7.1253    1.1693 C.ar      1 <0>         0.1633
     14 C10        -1.0498   -6.4031    2.3478 C.ar      1 <0>        -0.1950
     15 C11        -0.8760   -7.0515    3.5620 C.ar      1 <0>         0.1012
     16 C12        -0.6297   -8.4367    3.5879 C.ar      1 <0>         0.0266
     17 C13        -0.5621   -9.1475    2.3845 C.ar      1 <0>         0.0022
     18 C14        -0.7412   -8.4972    1.1978 C.ar      1 <0>        -0.1377
     19 C15        -0.6736   -9.2699   -0.0943 C.3       1 <0>         0.1574
     20 N1          0.6818   -9.1852   -0.6437 N.pl3     1 <0>        -0.4542
     21 C16         1.1523   -8.2278   -1.5014 C.2       1 <0>        -0.0455
     22 C17         2.4416   -8.5269   -1.7500 C.2       1 <0>        -0.0336
     23 N2          2.7500   -9.6367   -1.0628 N.2       1 <0>        -0.4941
     24 C18         1.7022  -10.0338   -0.3938 C.2       1 <0>         0.1814
     25 N3         -0.5028   -8.7960    4.8880 N.2       1 <0>        -0.4585
     26 C19        -0.6518   -7.7433    5.6525 C.2       1 <0>         0.3323
     27 N4         -0.8852   -6.6373    4.8785 N.pl3     1 <0>        -0.5770
     28 C20        -0.5791   -7.7477    7.1304 C.ar      1 <0>         0.1766
     29 C21        -0.3287   -8.9411    7.8071 C.ar      1 <0>        -0.1167
     30 C22        -0.2636   -8.9290    9.1898 C.ar      1 <0>        -0.0728
     31 C23        -0.4511   -7.7236    9.8512 C.ar      1 <0>        -0.1552
     32 C24        -0.6958   -6.5770    9.1167 C.ar      1 <0>         0.1069
     33 N5         -0.7474   -6.6144    7.8015 N.ar      1 <0>        -0.4798
     34 H1         -2.6162    1.5622    2.8230 H         1 <0>         0.0864
     35 H2         -1.3423    1.7918    1.6012 H         1 <0>         0.0756
     36 H3         -3.0446    1.6595    1.0981 H         1 <0>         0.0758
     37 H4         -1.3962   -0.5548    2.4005 H         1 <0>         0.1350
     38 H5         -3.0984   -0.6872    1.8974 H         1 <0>         0.1356
     39 H6          0.5745   -2.3708    0.6070 H         1 <0>         0.1510
     40 H7          0.7725   -4.8242    0.5981 H         1 <0>         0.1427
     41 H8         -3.3097   -5.1414   -0.6286 H         1 <0>         0.1465
     42 H9         -3.5019   -2.6877   -0.6077 H         1 <0>         0.1534
     43 H10        -1.2388   -5.3401    2.3223 H         1 <0>         0.1351
     44 H11        -0.3734  -10.2108    2.3949 H         1 <0>         0.1475
     45 H12        -0.9252  -10.3138    0.0931 H         1 <0>         0.1082
     46 H13        -1.3817   -8.8479   -0.8075 H         1 <0>         0.1069
     47 H14         0.5962   -7.3931   -1.9020 H         1 <0>         0.1708
     48 H15         3.1100   -7.9707   -2.3904 H         1 <0>         0.1669
     49 H16         1.6577  -10.8993    0.2507 H         1 <0>         0.2024
     50 H17        -0.1878   -9.8617    7.2602 H         1 <0>         0.1523
     51 H18        -0.0715   -9.8374    9.7414 H         1 <0>         0.1461
     52 H19        -0.4067   -7.6811   10.9295 H         1 <0>         0.1438
     53 H20        -0.8421   -5.6375    9.6289 H         1 <0>         0.1654
     54 H21        -1.0295   -5.7322    5.1963 H         1 <0>         0.4324
@<TRIPOS>BOND
     1    1    2 1
     2    1   34 1
     3    1   35 1
     4    1   36 1
     5    2    3 1
     6    2   37 1
     7    2   38 1
     8    3    4 2
     9    3    5 2
    10    3    6 1
    11    6   11 ar
    12    6    7 ar
    13    7    8 ar
    14    7   39 1
    15    8    9 ar
    16    8   40 1
    17    9   10 ar
    18    9   12 1
    19   10   11 ar
    20   10   41 1
    21   11   42 1
    22   12   13 1
    23   13   18 ar
    24   13   14 ar
    25   14   15 ar
    26   14   43 1
    27   15   27 1
    28   15   16 ar
    29   16   17 ar
    30   16   25 1
    31   17   18 ar
    32   17   44 1
    33   18   19 1
    34   19   20 1
    35   19   45 1
    36   19   46 1
    37   20   24 1
    38   20   21 1
    39   21   22 2
    40   21   47 1
    41   22   23 1
    42   22   48 1
    43   23   24 2
    44   24   49 1
    45   25   26 2
    46   26   27 1
    47   26   28 1
    48   27   54 1
    49   28   33 ar
    50   28   29 ar
    51   29   30 ar
    52   29   50 1
    53   30   31 ar
    54   30   51 1
    55   31   32 ar
    56   31   52 1
    57   32   33 ar
    58   32   53 1
@<TRIPOS>MOLECULE
CHEMBL594382__1
   55    59     0     0     0
SMALL
USER_CHARGES

@<TRIPOS>ATOM
      1 C1         -0.4357    1.3628   -2.8654 C.3       1 <0>        -0.1528
      2 C2         -0.3820   -0.1574   -2.7008 C.3       1 <0>        -0.6040
      3 S1          0.8174   -0.5836   -1.4084 S.o2      1 <0>         2.4903
      4 O1          2.1343   -0.2685   -1.8396 O.2       1 <0>        -0.9279
      5 O2          0.3465   -0.1476   -0.1406 O.2       1 <0>        -0.9296
      6 C3          0.7822   -2.3431   -1.3203 C.ar      1 <0>        -0.6564
      7 C4         -0.1031   -2.9736   -0.4655 C.ar      1 <0>        -0.0052
      8 C5         -0.1328   -4.3529   -0.3945 C.ar      1 <0>        -0.1580
      9 C6          0.7267   -5.1055   -1.1820 C.ar      1 <0>         0.1286
     10 C7          1.6141   -4.4702   -2.0390 C.ar      1 <0>        -0.1343
     11 C8          1.6358   -3.0909   -2.1103 C.ar      1 <0>        -0.0028
     12 O3          0.6998   -6.4624   -1.1138 O.3       1 <0>        -0.2598
     13 C9         -0.4070   -7.1029   -1.5754 C.ar      1 <0>         0.1337
     14 C10        -1.4007   -6.3844   -2.2093 C.ar      1 <0>        -0.1402
     15 C11        -2.5390   -7.0447   -2.6838 C.ar      1 <0>         0.1150
     16 C12        -2.6562   -8.4355   -2.5083 C.ar      1 <0>         0.0231
     17 C13        -1.6470   -9.1421   -1.8689 C.ar      1 <0>        -0.0388
     18 C14        -0.5283   -8.4803   -1.4108 C.ar      1 <0>        -0.1472
     19 C15         0.5681   -9.2514   -0.7221 C.3       1 <0>         0.1514
     20 N1          0.3648   -9.1998    0.7278 N.pl3     1 <0>        -0.4015
     21 C16         0.8578   -8.2524    1.5839 C.2       1 <0>         0.0362
     22 C17         0.4329   -8.5836    2.8181 C.2       1 <0>        -0.0012
     23 N2         -0.2994   -9.7029    2.7184 N.pl3     1 <0>        -0.4757
     24 C18        -0.3488  -10.0749    1.4685 C.cat     1 <0>         0.2839
     25 N3         -3.8664   -8.7935   -3.0711 N.pl3     1 <0>        -0.5741
     26 H1         -4.2405   -9.6876   -3.1116 H         1 <0>         0.4367
     27 C19        -4.4389   -7.6508   -3.5599 C.2       1 <0>         0.3734
     28 N4         -3.6543   -6.6274   -3.3292 N.2       1 <0>        -0.4789
     29 C20        -5.7479   -7.5815   -4.2469 C.ar      1 <0>         0.1578
     30 C21        -6.2235   -6.3540   -4.7067 C.ar      1 <0>        -0.1102
     31 C22        -7.4495   -6.3055   -5.3479 C.ar      1 <0>        -0.0728
     32 C23        -8.1602   -7.4863   -5.5084 C.ar      1 <0>        -0.1440
     33 C24        -7.6282   -8.6696   -5.0273 C.ar      1 <0>         0.1083
     34 N5         -6.4574   -8.6893   -4.4254 N.ar      1 <0>        -0.4762
     35 H2         -0.7388    1.8198   -1.9234 H         1 <0>         0.0763
     36 H3          0.5499    1.7326   -3.1482 H         1 <0>         0.0768
     37 H4         -1.1564    1.6189   -3.6420 H         1 <0>         0.0886
     38 H5         -1.3676   -0.5273   -2.4180 H         1 <0>         0.1360
     39 H6         -0.0789   -0.6144   -3.6428 H         1 <0>         0.1367
     40 H7         -0.7716   -2.3873    0.1474 H         1 <0>         0.1529
     41 H8         -0.8241   -4.8449    0.2735 H         1 <0>         0.1389
     42 H9          2.2841   -5.0538   -2.6530 H         1 <0>         0.1473
     43 H10         2.3229   -2.5960   -2.7806 H         1 <0>         0.1563
     44 H11        -1.3000   -5.3168   -2.3381 H         1 <0>         0.1466
     45 H12        -1.7368  -10.2098   -1.7336 H         1 <0>         0.1430
     46 H13         0.5470  -10.2890   -1.0553 H         1 <0>         0.1319
     47 H14         1.5334   -8.8099   -0.9696 H         1 <0>         0.1381
     48 H15         1.4700   -7.4026    1.3203 H         1 <0>         0.2206
     49 H16         0.6448   -8.0429    3.7287 H         1 <0>         0.2228
     50 H17        -0.8715  -10.9407    1.0897 H         1 <0>         0.2573
     51 H18        -5.6439   -5.4539   -4.5644 H         1 <0>         0.1523
     52 H19        -7.8441   -5.3694   -5.7146 H         1 <0>         0.1494
     53 H20        -9.1197   -7.4818   -6.0040 H         1 <0>         0.1481
     54 H21        -8.1793   -9.5902   -5.1505 H         1 <0>         0.1693
     55 H22        -0.7279  -10.1613    3.4581 H         1 <0>         0.4641
@<TRIPOS>BOND
     1    1    2 1
     2    1   35 1
     3    1   36 1
     4    1   37 1
     5    2    3 1
     6    2   38 1
     7    2   39 1
     8    3    4 2
     9    3    5 2
    10    3    6 1
    11    6   11 ar
    12    6    7 ar
    13    7    8 ar
    14    7   40 1
    15    8    9 ar
    16    8   41 1
    17    9   10 ar
    18    9   12 1
    19   10   11 ar
    20   10   42 1
    21   11   43 1
    22   12   13 1
    23   13   18 ar
    24   13   14 ar
    25   14   15 ar
    26   14   44 1
    27   15   28 1
    28   15   16 ar
    29   16   17 ar
    30   16   25 1
    31   17   18 ar
    32   17   45 1
    33   18   19 1
    34   19   20 1
    35   19   46 1
    36   19   47 1
    37   20   24 1
    38   20   21 1
    39   21   22 2
    40   21   48 1
    41   22   23 1
    42   22   49 1
    43   23   24 2
    44   23   55 1
    45   24   50 1
    46   25   26 1
    47   25   27 1
    48   27   28 2
    49   27   29 1
    50   29   34 ar
    51   29   30 ar
    52   30   31 ar
    53   30   51 1
    54   31   32 ar
    55   31   52 1
    56   32   33 ar
    57   32   53 1
    58   33   34 ar
    59   33   54 1
@<TRIPOS>MOLECULE
CHEMBL594382__2
   54    58     0     0     0
SMALL
USER_CHARGES

@<TRIPOS>ATOM
      1 C1          2.6829    1.3833    1.0839 C.3       1 <0>        -0.1510
      2 C2          2.5371   -0.1383    1.0177 C.3       1 <0>        -0.6072
      3 S1          0.8251   -0.5990    1.4015 S.o2      1 <0>         2.4945
      4 O1          0.5356   -0.3155    2.7635 O.2       1 <0>        -0.9325
      5 O2         -0.0443   -0.1557    0.3687 O.2       1 <0>        -0.9320
      6 C3          0.7939   -2.3573    1.2918 C.ar      1 <0>        -0.6636
      7 C4          0.5058   -2.9684    0.0854 C.ar      1 <0>        -0.0054
      8 C5          0.4806   -4.3467   -0.0034 C.ar      1 <0>        -0.1561
      9 C6          0.7448   -5.1180    1.1194 C.ar      1 <0>         0.1418
     10 C7          1.0337   -4.5021    2.3289 C.ar      1 <0>        -0.1395
     11 C8          1.0631   -3.1235    2.4109 C.ar      1 <0>        -0.0058
     12 O3          0.7203   -6.4739    1.0349 O.3       1 <0>        -0.2527
     13 C9          1.6832   -7.0848    0.2946 C.ar      1 <0>         0.1345
     14 C10         2.7176   -6.3394   -0.2345 C.ar      1 <0>        -0.1460
     15 C11         3.7076   -6.9693   -0.9961 C.ar      1 <0>         0.0990
     16 C12         3.6358   -8.3573   -1.2131 C.ar      1 <0>         0.0295
     17 C13         2.5888   -9.0912   -0.6731 C.ar      1 <0>        -0.0481
     18 C14         1.6227   -8.4593    0.0797 C.ar      1 <0>        -0.1119
     19 C15         0.4904   -9.2601    0.6692 C.3       1 <0>         0.1568
     20 N1         -0.6645   -9.2085   -0.2306 N.pl3     1 <0>        -0.4540
     21 C16        -1.6673   -8.2770   -0.2126 C.2       1 <0>        -0.0429
     22 C17        -2.5186   -8.6017   -1.2042 C.2       1 <0>        -0.0336
     23 N2         -2.0485   -9.7015   -1.8112 N.2       1 <0>        -0.4933
     24 C18        -0.9355  -10.0677   -1.2366 C.2       1 <0>         0.1789
     25 N3          4.7336   -8.6828   -1.9867 N.pl3     1 <0>        -0.5732
     26 H1          4.9695   -9.5671   -2.3082 H         1 <0>         0.4337
     27 C19         5.4252   -7.5244   -2.2152 C.2       1 <0>         0.3491
     28 N4          4.8174   -6.5219   -1.6307 N.2       1 <0>        -0.4761
     29 C20         6.6733   -7.4199   -3.0036 C.ar      1 <0>         0.1730
     30 C21         7.2901   -6.1792   -3.1610 C.ar      1 <0>        -0.1153
     31 C22         8.4572   -6.0977   -3.9010 C.ar      1 <0>        -0.0736
     32 C23         8.9698   -7.2598   -4.4596 C.ar      1 <0>        -0.1532
     33 C24         8.3057   -8.4577   -4.2633 C.ar      1 <0>         0.1073
     34 N5          7.1997   -8.5089   -3.5508 N.ar      1 <0>        -0.4773
     35 H2          2.4295    1.7293    2.0860 H         1 <0>         0.0752
     36 H3          3.7116    1.6602    0.8532 H         1 <0>         0.0862
     37 H4          2.0114    1.8445    0.3596 H         1 <0>         0.0752
     38 H5          2.7905   -0.4843    0.0156 H         1 <0>         0.1363
     39 H6          3.2086   -0.5994    1.7419 H         1 <0>         0.1362
     40 H7          0.2999   -2.3677   -0.7882 H         1 <0>         0.1508
     41 H8          0.2552   -4.8236   -0.9458 H         1 <0>         0.1422
     42 H9          1.2397   -5.1001    3.2043 H         1 <0>         0.1455
     43 H10         1.2925   -2.6437    3.3508 H         1 <0>         0.1527
     44 H11         2.7621   -5.2742   -0.0616 H         1 <0>         0.1412
     45 H12         2.5331  -10.1568   -0.8398 H         1 <0>         0.1404
     46 H13         0.8056  -10.2957    0.7968 H         1 <0>         0.1066
     47 H14         0.2154   -8.8421    1.6376 H         1 <0>         0.1088
     48 H15        -1.7584   -7.4422    0.4666 H         1 <0>         0.1721
     49 H16        -3.4217   -8.0698   -1.4650 H         1 <0>         0.1677
     50 H17        -0.3325  -10.9186   -1.5174 H         1 <0>         0.2008
     51 H18         6.8631   -5.2944   -2.7124 H         1 <0>         0.1517
     52 H19         8.9574   -5.1507   -4.0406 H         1 <0>         0.1462
     53 H20         9.8784   -7.2295   -5.0426 H         1 <0>         0.1444
     54 H21         8.7022   -9.3637   -4.6972 H         1 <0>         0.1664
@<TRIPOS>BOND
     1    1    2 1
     2    1   35 1
     3    1   36 1
     4    1   37 1
     5    2    3 1
     6    2   38 1
     7    2   39 1
     8    3    4 2
     9    3    5 2
    10    3    6 1
    11    6   11 ar
    12    6    7 ar
    13    7    8 ar
    14    7   40 1
    15    8    9 ar
    16    8   41 1
    17    9   10 ar
    18    9   12 1
    19   10   11 ar
    20   10   42 1
    21   11   43 1
    22   12   13 1
    23   13   18 ar
    24   13   14 ar
    25   14   15 ar
    26   14   44 1
    27   15   28 1
    28   15   16 ar
    29   16   17 ar
    30   16   25 1
    31   17   18 ar
    32   17   45 1
    33   18   19 1
    34   19   20 1
    35   19   46 1
    36   19   47 1
    37   20   24 1
    38   20   21 1
    39   21   22 2
    40   21   48 1
    41   22   23 1
    42   22   49 1
    43   23   24 2
    44   24   50 1
    45   25   26 1
    46   25   27 1
    47   27   28 2
    48   27   29 1
    49   29   34 ar
    50   29   30 ar
    51   30   31 ar
    52   30   51 1
    53   31   32 ar
    54   31   52 1
    55   32   33 ar
    56   32   53 1
    57   33   34 ar
    58   33   54 1
@<TRIPOS>MOLECULE
CHEMBL563986
   39    42     0     0     0
SMALL
USER_CHARGES

@<TRIPOS>ATOM
      1 C1          0.6070    0.3495    1.2065 C.ar      1 <0>        -0.1644
      2 C2          1.7947    1.0540    1.1983 C.ar      1 <0>        -0.0325
      3 C3          2.3810    1.4111   -0.0096 C.ar      1 <0>        -0.2124
      4 C4          1.7704    1.0582   -1.2067 C.ar      1 <0>        -0.0320
      5 C5          0.5828    0.3538   -1.1934 C.ar      1 <0>        -0.1646
      6 C6          0.0004   -0.0011    0.0119 C.ar      1 <0>         0.1337
      7 F1         -1.1613   -0.6907    0.0224 F         1 <0>        -0.1317
      8 S1          3.8961    2.3105   -0.0233 S.3       1 <0>         0.1445
      9 C7          5.1336    1.0629    0.1073 C.ar      1 <0>        -0.1003
     10 C8          4.7826   -0.2897    0.0787 C.ar      1 <0>        -0.0770
     11 C9          5.7748   -1.2274    0.1827 C.ar      1 <0>        -0.0873
     12 C10         7.1025   -0.8143    0.3137 C.ar      1 <0>         0.0770
     13 N1          7.4156    0.4668    0.3389 N.ar      1 <0>        -0.3862
     14 C11         6.4836    1.4121    0.2355 C.ar      1 <0>         0.0900
     15 C12         6.8747    2.8347    0.2620 C.2       1 <0>         0.5697
     16 O1          6.0255    3.7004    0.1726 O.2       1 <0>        -0.4395
     17 N2          8.1731    3.1744    0.3852 N.am      1 <0>        -0.6017
     18 C13         8.5411    4.5133    0.4101 C.2       1 <0>         0.2728
     19 N3          7.7683    5.5752    0.3325 N.2       1 <0>        -0.5217
     20 C14         8.2764    6.7930    0.3718 C.2       1 <0>         0.0642
     21 C15         9.6226    6.8954    0.4950 C.2       1 <0>        -0.2451
     22 S2         10.0834    5.1714    0.5544 S.3       1 <0>         0.1088
     23 S3          8.3781   -2.0224    0.4480 S.3       1 <0>         0.1854
     24 C16         9.8537   -1.0701    0.5910 C.2       1 <0>         0.2415
     25 N4          9.9313    0.2438    0.5924 N.2       1 <0>        -0.5010
     26 H1         11.3650   -2.4926    0.7601 H         1 <0>         0.4457
     27 C17        11.2045    0.6187    0.7180 C.2       1 <0>         0.2003
     28 N5         11.9581   -0.4449    0.7985 N.2       1 <0>        -0.2952
     29 N6         11.1058   -1.5585    0.7246 N.pl3     1 <0>        -0.4591
     30 H2          0.1532    0.0678    2.1451 H         1 <0>         0.1437
     31 H3          2.2673    1.3274    2.1301 H         1 <0>         0.1426
     32 H4          2.2241    1.3350   -2.1469 H         1 <0>         0.1439
     33 H5          0.1076    0.0796   -2.1237 H         1 <0>         0.1439
     34 H6          3.7499   -0.5890   -0.0229 H         1 <0>         0.1508
     35 H7          5.5322   -2.2796    0.1639 H         1 <0>         0.1530
     36 H8          8.8505    2.4838    0.4564 H         1 <0>         0.4427
     37 H9          7.6476    7.6688    0.3082 H         1 <0>         0.1770
     38 H10        10.2446    7.7768    0.5468 H         1 <0>         0.1998
     39 H11        11.5566    1.6393    0.7479 H         1 <0>         0.2206
@<TRIPOS>BOND
     1    1    6 ar
     2    1    2 ar
     3    1   30 1
     4    2    3 ar
     5    2   31 1
     6    3    4 ar
     7    3    8 1
     8    4    5 ar
     9    4   32 1
    10    5    6 ar
    11    5   33 1
    12    6    7 1
    13    8    9 1
    14    9   14 ar
    15    9   10 ar
    16   10   11 ar
    17   10   34 1
    18   11   12 ar
    19   11   35 1
    20   12   13 ar
    21   12   23 1
    22   13   14 ar
    23   14   15 1
    24   15   16 2
    25   15   17 am
    26   17   18 1
    27   17   36 1
    28   18   22 1
    29   18   19 2
    30   19   20 1
    31   20   21 2
    32   20   37 1
    33   21   22 1
    34   21   38 1
    35   23   24 1
    36   24   25 2
    37   24   29 1
    38   25   27 1
    39   26   29 1
    40   27   39 1
    41   27   28 2
    42   28   29 1
@<TRIPOS>MOLECULE
CHEMBL563986__1
   39    42     0     0     0
SMALL
USER_CHARGES

@<TRIPOS>ATOM
      1 C1          0.6071    0.3496    1.2068 C.ar      1 <0>        -0.1642
      2 C2          1.7947    1.0541    1.1985 C.ar      1 <0>        -0.0326
      3 C3          2.3810    1.4111   -0.0095 C.ar      1 <0>        -0.2106
      4 C4          1.7704    1.0581   -1.2065 C.ar      1 <0>        -0.0321
      5 C5          0.5828    0.3537   -1.1931 C.ar      1 <0>        -0.1644
      6 C6          0.0003   -0.0010    0.0122 C.ar      1 <0>         0.1337
      7 F1         -1.1616   -0.6902    0.0228 F         1 <0>        -0.1316
      8 S1          3.8961    2.3105   -0.0233 S.3       1 <0>         0.1389
      9 C7          5.1336    1.0630    0.1075 C.ar      1 <0>        -0.1034
     10 C8          4.7825   -0.2897    0.0790 C.ar      1 <0>        -0.0745
     11 C9          5.7744   -1.2274    0.1836 C.ar      1 <0>        -0.0888
     12 C10         7.1024   -0.8145    0.3151 C.ar      1 <0>         0.0714
     13 N1          7.4155    0.4668    0.3401 N.ar      1 <0>        -0.4081
     14 C11         6.4834    1.4121    0.2356 C.ar      1 <0>         0.0895
     15 C12         6.8745    2.8347    0.2610 C.2       1 <0>         0.5692
     16 O1          6.0253    3.7004    0.1708 O.2       1 <0>        -0.4370
     17 N2          8.1729    3.1745    0.3843 N.am      1 <0>        -0.6043
     18 C13         8.5409    4.5134    0.4082 C.2       1 <0>         0.2738
     19 N3          7.7681    5.5753    0.3294 N.2       1 <0>        -0.5198
     20 C14         8.2763    6.7932    0.3670 C.2       1 <0>         0.0655
     21 C15         9.6225    6.8956    0.4898 C.2       1 <0>        -0.2421
     22 S2         10.0831    5.1717    0.5523 S.3       1 <0>         0.0988
     23 S3          8.3779   -2.0226    0.4501 S.3       1 <0>         0.2155
     24 C16         9.8535   -1.0703    0.5936 C.2       1 <0>         0.1854
     25 N4         11.0893   -1.5640    0.7207 N.2       1 <0>        -0.5172
     26 H1         11.6533    1.4700    0.7613 H         1 <0>         0.4430
     27 C17        11.9516   -0.5832    0.8023 C.2       1 <0>         0.2775
     28 N5         11.2771    0.5765    0.7280 N.pl3     1 <0>        -0.4868
     29 N6          9.9209    0.2403    0.5875 N.2       1 <0>        -0.2711
     30 H2          0.1533    0.0680    2.1455 H         1 <0>         0.1438
     31 H3          2.2673    1.3276    2.1303 H         1 <0>         0.1423
     32 H4          2.2240    1.3348   -2.1468 H         1 <0>         0.1437
     33 H5          0.1076    0.0794   -2.1233 H         1 <0>         0.1440
     34 H6          3.7499   -0.5890   -0.0230 H         1 <0>         0.1505
     35 H7          5.5318   -2.2797    0.1648 H         1 <0>         0.1544
     36 H8          8.8502    2.4840    0.4563 H         1 <0>         0.4389
     37 H9          7.6475    7.6689    0.3025 H         1 <0>         0.1785
     38 H10        10.2446    7.7770    0.5401 H         1 <0>         0.2009
     39 H11        13.0210   -0.6878    0.9109 H         1 <0>         0.2294
@<TRIPOS>BOND
     1    1    6 ar
     2    1    2 ar
     3    1   30 1
     4    2    3 ar
     5    2   31 1
     6    3    4 ar
     7    3    8 1
     8    4    5 ar
     9    4   32 1
    10    5    6 ar
    11    5   33 1
    12    6    7 1
    13    8    9 1
    14    9   14 ar
    15    9   10 ar
    16   10   11 ar
    17   10   34 1
    18   11   12 ar
    19   11   35 1
    20   12   13 ar
    21   12   23 1
    22   13   14 ar
    23   14   15 1
    24   15   16 2
    25   15   17 am
    26   17   18 1
    27   17   36 1
    28   18   22 1
    29   18   19 2
    30   19   20 1
    31   20   21 2
    32   20   37 1
    33   21   22 1
    34   21   38 1
    35   23   24 1
    36   24   25 1
    37   24   29 2
    38   25   27 2
    39   26   28 1
    40   27   39 1
    41   27   28 1
    42   28   29 1
@<TRIPOS>MOLECULE
CHEMBL475058
   53    56     0     0     0
SMALL
USER_CHARGES

@<TRIPOS>ATOM
      1 C1          2.4224    1.8627    0.8406 C.3       1 <0>        -0.0801
      2 C2          2.1366    0.3892    0.7059 C.2       1 <0>         0.0852
      3 C3          2.2407   -0.2461   -0.4873 C.2       1 <0>        -0.2782
      4 S1          1.7937   -1.9099   -0.0186 S.3       1 <0>         0.2215
      5 C4          1.5261   -1.6265    1.6187 C.2       1 <0>         0.2417
      6 N1          1.7792   -0.3416    1.7456 N.2       1 <0>        -0.5495
      7 N2          1.1379   -2.5307    2.5990 N.am      1 <0>        -0.6061
      8 C5          0.9283   -3.8230    2.2788 C.2       1 <0>         0.5651
      9 O1          1.0790   -4.1972    1.1321 O.2       1 <0>        -0.4826
     10 C6          0.5152   -4.7853    3.3221 C.ar      1 <0>        -0.1025
     11 C7          0.3361   -4.3565    4.6381 C.ar      1 <0>        -0.0917
     12 C8         -0.0514   -5.2614    5.6125 C.ar      1 <0>         0.1035
     13 C9         -0.2612   -6.5928    5.2818 C.ar      1 <0>        -0.0935
     14 C10        -0.0843   -7.0232    3.9749 C.ar      1 <0>         0.0955
     15 C11         0.2977   -6.1234    2.9929 C.ar      1 <0>        -0.0567
     16 O2         -0.2909   -8.3280    3.6563 O.3       1 <0>        -0.2496
     17 C12         0.7977   -9.1220    3.4811 C.ar      1 <0>         0.2036
     18 C13         2.0684   -8.6257    3.7361 C.ar      1 <0>        -0.2105
     19 C14         3.1733   -9.4349    3.5571 C.ar      1 <0>        -0.0258
     20 C15         3.0142  -10.7387    3.1242 C.ar      1 <0>        -0.1635
     21 C16         1.7495  -11.2354    2.8691 C.ar      1 <0>         0.0117
     22 C17         0.6405  -10.4321    3.0524 C.ar      1 <0>        -0.6797
     23 S2         -0.9716  -11.0686    2.7351 S.o2      1 <0>         2.5023
     24 O3         -1.5751  -10.1139    1.8729 O.2       1 <0>        -0.9237
     25 O4         -0.7550  -12.4036    2.2991 O.2       1 <0>        -0.9384
     26 C18        -1.8001  -11.0650    4.3488 C.3       1 <0>        -0.6490
     27 O5         -0.2261   -4.8449    6.8942 O.3       1 <0>        -0.2507
     28 C19        -1.3762   -4.1893    7.2008 C.ar      1 <0>         0.1116
     29 C20        -2.3356   -3.9738    6.2218 C.ar      1 <0>        -0.1959
     30 C21        -3.5038   -3.3071    6.5361 C.ar      1 <0>        -0.0798
     31 C22        -3.7174   -2.8541    7.8249 C.ar      1 <0>        -0.1460
     32 C23        -2.7628   -3.0671    8.8023 C.ar      1 <0>        -0.0810
     33 C24        -1.5957   -3.7392    8.4948 C.ar      1 <0>        -0.1393
     34 H1          3.4787    2.0089    1.0660 H         1 <0>         0.0756
     35 H2          2.1771    2.3673   -0.0940 H         1 <0>         0.0772
     36 H3          1.8179    2.2778    1.6470 H         1 <0>         0.0740
     37 H4          2.5174    0.1463   -1.4547 H         1 <0>         0.1968
     38 H5          1.0177   -2.2320    3.5140 H         1 <0>         0.4237
     39 H6          0.4999   -3.3207    4.8964 H         1 <0>         0.1455
     40 H7         -0.5627   -7.2959    6.0442 H         1 <0>         0.1550
     41 H8          0.4313   -6.4584    1.9749 H         1 <0>         0.1616
     42 H9          2.1932   -7.6075    4.0738 H         1 <0>         0.1366
     43 H10         4.1624   -9.0490    3.7551 H         1 <0>         0.1378
     44 H11         3.8795  -11.3698    2.9849 H         1 <0>         0.1396
     45 H12         1.6280  -12.2537    2.5304 H         1 <0>         0.1566
     46 H13        -1.8377  -10.0467    4.7357 H         1 <0>         0.1328
     47 H14        -2.8142  -11.4490    4.2374 H         1 <0>         0.1349
     48 H15        -1.2464  -11.6972    5.0430 H         1 <0>         0.1316
     49 H16        -2.1689   -4.3268    5.2148 H         1 <0>         0.1271
     50 H17        -4.2508   -3.1391    5.7744 H         1 <0>         0.1287
     51 H18        -4.6313   -2.3327    8.0685 H         1 <0>         0.1281
     52 H19        -2.9319   -2.7120    9.8081 H         1 <0>         0.1342
     53 H20        -0.8526   -3.9095    9.2597 H         1 <0>         0.1349
@<TRIPOS>BOND
     1    1    2 1
     2    1   34 1
     3    1   35 1
     4    1   36 1
     5    2    6 1
     6    2    3 2
     7    3    4 1
     8    3   37 1
     9    4    5 1
    10    5    6 2
    11    5    7 1
    12    7    8 am
    13    7   38 1
    14    8    9 2
    15    8   10 1
    16   10   15 ar
    17   10   11 ar
    18   11   12 ar
    19   11   39 1
    20   12   13 ar
    21   12   27 1
    22   13   14 ar
    23   13   40 1
    24   14   15 ar
    25   14   16 1
    26   15   41 1
    27   16   17 1
    28   17   22 ar
    29   17   18 ar
    30   18   19 ar
    31   18   42 1
    32   19   20 ar
    33   19   43 1
    34   20   21 ar
    35   20   44 1
    36   21   22 ar
    37   21   45 1
    38   22   23 1
    39   23   24 2
    40   23   25 2
    41   23   26 1
    42   26   46 1
    43   26   47 1
    44   26   48 1
    45   27   28 1
    46   28   33 ar
    47   28   29 ar
    48   29   30 ar
    49   29   49 1
    50   30   31 ar
    51   30   50 1
    52   31   32 ar
    53   31   51 1
    54   32   33 ar
    55   32   52 1
    56   33   53 1
@<TRIPOS>MOLECULE
CHEMBL575904
   43    46     0     0     0
SMALL
USER_CHARGES

@<TRIPOS>ATOM
      1 C1          0.4512    2.0318   -0.8464 C.3       1 <0>        -0.0667
      2 C2          0.6873    0.5450   -0.7762 C.2       1 <0>         0.2762
      3 N1          0.5353   -0.2129   -1.8391 N.2       1 <0>        -0.5693
      4 C3          0.7596   -1.5098   -1.7059 C.2       1 <0>         0.2571
      5 S1          1.1811   -1.6409   -0.0844 S.3       1 <0>         0.3871
      6 N2          1.0546   -0.0252    0.3444 N.2       1 <0>        -0.5160
      7 N3          0.6689   -2.5085   -2.6620 N.pl3     1 <0>        -0.5704
      8 C4          0.9466   -3.8181   -2.3214 C.ar      1 <0>         0.4520
      9 C5          0.8657   -4.8531   -3.2848 C.ar      1 <0>        -0.1355
     10 C6          0.5054   -4.6039   -4.6134 C.ar      1 <0>        -0.1057
     11 C7          0.4444   -5.6532   -5.5053 C.ar      1 <0>         0.1337
     12 C8          0.7378   -6.9555   -5.0932 C.ar      1 <0>        -0.1232
     13 C9          1.0902   -7.2203   -3.8046 C.ar      1 <0>        -0.0562
     14 C10         1.1625   -6.1753   -2.8732 C.ar      1 <0>         0.1690
     15 N4          1.5061   -6.3894   -1.5938 N.ar      1 <0>        -0.5165
     16 C11         1.5647   -5.3915   -0.7448 C.ar      1 <0>         0.3442
     17 N5          1.3015   -4.1395   -1.0851 N.ar      1 <0>        -0.5688
     18 O1          0.0951   -5.4187   -6.7976 O.3       1 <0>        -0.2571
     19 C12         0.0458   -6.4783   -7.6477 C.ar      1 <0>         0.1318
     20 C13         1.2071   -6.9343   -8.2600 C.ar      1 <0>         0.0795
     21 C14         1.1531   -8.0128   -9.1238 C.ar      1 <0>        -0.0891
     22 C15        -0.0549   -8.6365   -9.3777 C.ar      1 <0>        -0.0994
     23 C16        -1.2108   -8.1838   -8.7698 C.ar      1 <0>        -0.0176
     24 C17        -1.1622   -7.1099   -7.9011 C.ar      1 <0>        -0.6442
     25 S2         -2.6357   -6.5395   -7.1213 S.o2      1 <0>         2.4946
     26 O2         -3.6520   -7.4221   -7.5768 O.2       1 <0>        -0.9294
     27 O3         -2.3087   -6.4623   -5.7406 O.2       1 <0>        -0.9187
     28 C18        -2.9051   -4.8764   -7.7935 C.3       1 <0>        -0.6452
     29 F1          2.3869   -6.3246   -8.0121 F         1 <0>        -0.1187
     30 H1          1.3807    2.5351   -1.1125 H         1 <0>         0.0869
     31 H2         -0.3060    2.2442   -1.6012 H         1 <0>         0.0869
     32 H3          0.1081    2.3914    0.1237 H         1 <0>         0.0874
     33 H4          0.4105   -2.2880   -3.5706 H         1 <0>         0.4358
     34 H5          0.2769   -3.5992   -4.9371 H         1 <0>         0.1413
     35 H6          0.6839   -7.7643   -5.8069 H         1 <0>         0.1373
     36 H7          1.3133   -8.2326   -3.5013 H         1 <0>         0.1537
     37 H8          1.8444   -5.6000    0.2773 H         1 <0>         0.2084
     38 H9          2.0547   -8.3681   -9.6006 H         1 <0>         0.1561
     39 H10        -0.0953   -9.4787  -10.0526 H         1 <0>         0.1545
     40 H11        -2.1526   -8.6728   -8.9705 H         1 <0>         0.1641
     41 H12        -3.0436   -4.9388   -8.8729 H         1 <0>         0.1345
     42 H13        -3.7939   -4.4399   -7.3378 H         1 <0>         0.1382
     43 H14        -2.0398   -4.2511   -7.5738 H         1 <0>         0.1375
@<TRIPOS>BOND
     1    1    2 1
     2    1   30 1
     3    1   31 1
     4    1   32 1
     5    2    6 2
     6    2    3 1
     7    3    4 2
     8    4    5 1
     9    4    7 1
    10    5    6 1
    11    7    8 1
    12    7   33 1
    13    8   17 ar
    14    8    9 ar
    15    9   14 ar
    16    9   10 ar
    17   10   11 ar
    18   10   34 1
    19   11   12 ar
    20   11   18 1
    21   12   13 ar
    22   12   35 1
    23   13   14 ar
    24   13   36 1
    25   14   15 ar
    26   15   16 ar
    27   16   17 ar
    28   16   37 1
    29   18   19 1
    30   19   24 ar
    31   19   20 ar
    32   20   21 ar
    33   20   29 1
    34   21   22 ar
    35   21   38 1
    36   22   23 ar
    37   22   39 1
    38   23   24 ar
    39   23   40 1
    40   24   25 1
    41   25   26 2
    42   25   27 2
    43   25   28 1
    44   28   41 1
    45   28   42 1
    46   28   43 1
@<TRIPOS>MOLECULE
CHEMBL575903
   37    40     0     0     0
SMALL
USER_CHARGES

@<TRIPOS>ATOM
      1 C1          0.0091    1.5165    0.0229 C.3       1 <0>        -0.0803
      2 C2          0.0250    0.0096    0.0117 C.2       1 <0>         0.0859
      3 C3          0.0280   -0.6896   -1.1493 C.2       1 <0>        -0.2902
      4 S1          0.0489   -2.3639   -0.5298 S.3       1 <0>         0.2461
      5 C4          0.0516   -2.0039    1.1142 C.2       1 <0>         0.2445
      6 N1          0.0423   -0.6881    1.1327 N.2       1 <0>        -0.5582
      7 N2          0.0655   -2.8815    2.1893 N.pl3     1 <0>        -0.5751
      8 C5          0.0801   -4.2446    1.9678 C.ar      1 <0>         0.4740
      9 C6          0.0886   -5.1576    3.0509 C.ar      1 <0>        -0.1909
     10 C7          0.0821   -4.7291    4.3822 C.ar      1 <0>         0.0083
     11 C8          0.0906   -5.6675    5.3950 C.ar      1 <0>        -0.1470
     12 C9          0.1055   -7.0345    5.0985 C.ar      1 <0>        -0.0180
     13 C10         0.1119   -7.4713    3.8091 C.ar      1 <0>        -0.1077
     14 C11         0.1036   -6.5433    2.7581 C.ar      1 <0>         0.2196
     15 N3          0.1090   -6.9295    1.4730 N.ar      1 <0>        -0.5361
     16 C12         0.1006   -6.0387    0.5104 C.ar      1 <0>         0.3669
     17 N4          0.0810   -4.7343    0.7357 N.ar      1 <0>        -0.5830
     18 S2          0.0832   -5.1385    7.0757 S.3       1 <0>         0.1130
     19 C13        -1.6234   -4.8903    7.4369 C.2       1 <0>         0.1328
     20 N5         -2.6361   -5.1634    6.6475 N.2       1 <0>        -0.2839
     21 N6         -3.7394   -4.8564    7.2309 N.2       1 <0>        -0.2880
     22 C14        -3.4988   -4.3732    8.4171 C.2       1 <0>         0.1637
     23 N7         -2.1432   -4.3829    8.5933 N.pl3     1 <0>        -0.4666
     24 C15        -1.4017   -3.9379    9.7758 C.3       1 <0>         0.0702
     25 H1          1.0328    1.8907    0.0170 H         1 <0>         0.0745
     26 H2         -0.5161    1.8808   -0.8601 H         1 <0>         0.0764
     27 H3         -0.5011    1.8678    0.9198 H         1 <0>         0.0725
     28 H4          0.0197   -0.3323   -2.1685 H         1 <0>         0.1941
     29 H5          0.0650   -2.5375    3.0963 H         1 <0>         0.4327
     30 H6          0.0710   -3.6747    4.6157 H         1 <0>         0.1365
     31 H7          0.1123   -7.7537    5.9041 H         1 <0>         0.1468
     32 H8          0.1237   -8.5300    3.5963 H         1 <0>         0.1531
     33 H9          0.1057   -6.3851   -0.5125 H         1 <0>         0.2081
     34 H10        -4.2345   -4.0325    9.1307 H         1 <0>         0.2249
     35 H11        -1.1627   -2.8790    9.6777 H         1 <0>         0.0881
     36 H12        -2.0114   -4.0917   10.6661 H         1 <0>         0.0988
     37 H13        -0.4793   -4.5120    9.8636 H         1 <0>         0.0933
@<TRIPOS>BOND
     1    1    2 1
     2    1   25 1
     3    1   26 1
     4    1   27 1
     5    2    6 1
     6    2    3 2
     7    3    4 1
     8    3   28 1
     9    4    5 1
    10    5    6 2
    11    5    7 1
    12    7    8 1
    13    7   29 1
    14    8   17 ar
    15    8    9 ar
    16    9   14 ar
    17    9   10 ar
    18   10   11 ar
    19   10   30 1
    20   11   12 ar
    21   11   18 1
    22   12   13 ar
    23   12   31 1
    24   13   14 ar
    25   13   32 1
    26   14   15 ar
    27   15   16 ar
    28   16   17 ar
    29   16   33 1
    30   18   19 1
    31   19   23 1
    32   19   20 2
    33   20   21 1
    34   21   22 2
    35   22   23 1
    36   22   34 1
    37   23   24 1
    38   24   35 1
    39   24   36 1
    40   24   37 1
@<TRIPOS>MOLECULE
CHEMBL594634
   59    63     0     0     0
SMALL
USER_CHARGES

@<TRIPOS>ATOM
      1 C1         -0.4393    1.3621   -2.8644 C.3       1 <0>        -0.1514
      2 C2         -0.3854   -0.1580   -2.6991 C.3       1 <0>        -0.6073
      3 S1          0.8175   -0.5837   -1.4097 S.o2      1 <0>         2.4940
      4 O1          2.1332   -0.2689   -1.8446 O.2       1 <0>        -0.9310
      5 O2          0.3501   -0.1469   -0.1408 O.2       1 <0>        -0.9315
      6 C3          0.7823   -2.3431   -1.3206 C.ar      1 <0>        -0.6640
      7 C4         -0.1007   -2.9731   -0.4631 C.ar      1 <0>        -0.0068
      8 C5         -0.1307   -4.3523   -0.3916 C.ar      1 <0>        -0.1598
      9 C6          0.7263   -5.1055   -1.1813 C.ar      1 <0>         0.1399
     10 C7          1.6115   -4.4707   -2.0410 C.ar      1 <0>        -0.1380
     11 C8          1.6337   -3.0914   -2.1124 C.ar      1 <0>        -0.0050
     12 O3          0.6992   -6.4623   -1.1126 O.3       1 <0>        -0.2495
     13 C9         -0.4074   -7.1024   -1.5737 C.ar      1 <0>         0.1556
     14 C10        -1.4041   -6.3829   -2.2094 C.ar      1 <0>        -0.1974
     15 C11        -2.5324   -7.0396   -2.6789 C.ar      1 <0>         0.0961
     16 C12        -2.6564   -8.4307   -2.5063 C.ar      1 <0>         0.0268
     17 C13        -1.6369   -9.1387   -1.8604 C.ar      1 <0>         0.0065
     18 C14        -0.5298   -8.4800   -1.4091 C.ar      1 <0>        -0.1314
     19 C15         0.5675   -9.2496   -0.7201 C.3       1 <0>         0.1596
     20 N1          0.4333   -9.0981    0.7309 N.am      1 <0>        -0.5969
     21 C16         1.1158   -7.9853    1.3868 C.3       1 <0>         0.0714
     22 C17         0.5014   -7.7369    2.7660 C.3       1 <0>         0.0425
     23 O4          0.4173   -8.9859    3.4623 O.3       1 <0>        -0.3682
     24 C18        -0.5362   -9.8826    2.8873 C.3       1 <0>         0.0486
     25 C19        -0.3143   -9.9816    1.4037 C.2       1 <0>         0.4876
     26 O5         -0.8270  -10.8972    0.7956 O.2       1 <0>        -0.5350
     27 N2         -3.8402   -8.7976   -3.0537 N.2       1 <0>        -0.4570
     28 C20        -4.4442   -7.7441   -3.5439 C.2       1 <0>         0.3274
     29 N3         -3.6745   -6.6299   -3.3368 N.pl3     1 <0>        -0.5777
     30 C21        -5.7604   -7.7555   -4.2199 C.ar      1 <0>         0.1788
     31 C22        -6.4530   -8.9572   -4.3652 C.ar      1 <0>        -0.1175
     32 C23        -7.6831   -8.9516   -4.9999 C.ar      1 <0>        -0.0727
     33 C24        -8.1811   -7.7442   -5.4688 C.ar      1 <0>        -0.1565
     34 C25        -7.4405   -6.5892   -5.2905 C.ar      1 <0>         0.1063
     35 N4         -6.2751   -6.6208   -4.6785 N.ar      1 <0>        -0.4803
     36 H1         -0.7399    1.8196   -1.9219 H         1 <0>         0.0755
     37 H2          0.5455    1.7317   -3.1500 H         1 <0>         0.0758
     38 H3         -1.1621    1.6178   -3.6392 H         1 <0>         0.0864
     39 H4         -1.3702   -0.5276   -2.4135 H         1 <0>         0.1350
     40 H5         -0.0848   -0.6156   -3.6416 H         1 <0>         0.1358
     41 H6         -0.7673   -2.3864    0.1515 H         1 <0>         0.1505
     42 H7         -0.8204   -4.8439    0.2785 H         1 <0>         0.1413
     43 H8          2.2796   -5.0546   -2.6567 H         1 <0>         0.1470
     44 H9          2.3194   -2.5969   -2.7846 H         1 <0>         0.1531
     45 H10        -1.3042   -5.3153   -2.3391 H         1 <0>         0.1331
     46 H11        -1.7236  -10.2065   -1.7235 H         1 <0>         0.1499
     47 H12         0.4921  -10.3046   -0.9838 H         1 <0>         0.1019
     48 H13         1.5363   -8.8641   -1.0376 H         1 <0>         0.0944
     49 H14         2.1731   -8.2250    1.4994 H         1 <0>         0.0779
     50 H15         1.0124   -7.0875    0.7774 H         1 <0>         0.0984
     51 H16         1.1307   -7.0467    3.3278 H         1 <0>         0.1167
     52 H17        -0.4968   -7.3144    2.6510 H         1 <0>         0.0614
     53 H18        -0.4252  -10.8682    3.3394 H         1 <0>         0.1327
     54 H19        -1.5431   -9.5101    3.0753 H         1 <0>         0.0898
     55 H20        -6.0354   -9.8791   -3.9883 H         1 <0>         0.1523
     56 H21        -8.2427   -9.8664   -5.1275 H         1 <0>         0.1457
     57 H22        -9.1377   -7.7065   -5.9686 H         1 <0>         0.1432
     58 H23        -7.8256   -5.6482   -5.6545 H         1 <0>         0.1648
     59 H24        -3.8916   -5.7227   -3.6026 H         1 <0>         0.4311
@<TRIPOS>BOND
     1    1    2 1
     2    1   36 1
     3    1   37 1
     4    1   38 1
     5    2    3 1
     6    2   39 1
     7    2   40 1
     8    3    4 2
     9    3    5 2
    10    3    6 1
    11    6   11 ar
    12    6    7 ar
    13    7    8 ar
    14    7   41 1
    15    8    9 ar
    16    8   42 1
    17    9   10 ar
    18    9   12 1
    19   10   11 ar
    20   10   43 1
    21   11   44 1
    22   12   13 1
    23   13   18 ar
    24   13   14 ar
    25   14   15 ar
    26   14   45 1
    27   15   29 1
    28   15   16 ar
    29   16   17 ar
    30   16   27 1
    31   17   18 ar
    32   17   46 1
    33   18   19 1
    34   19   20 1
    35   19   47 1
    36   19   48 1
    37   20   25 am
    38   20   21 1
    39   21   22 1
    40   21   49 1
    41   21   50 1
    42   22   23 1
    43   22   51 1
    44   22   52 1
    45   23   24 1
    46   24   25 1
    47   24   53 1
    48   24   54 1
    49   25   26 2
    50   27   28 2
    51   28   29 1
    52   28   30 1
    53   29   59 1
    54   30   35 ar
    55   30   31 ar
    56   31   32 ar
    57   31   55 1
    58   32   33 ar
    59   32   56 1
    60   33   34 ar
    61   33   57 1
    62   34   35 ar
    63   34   58 1
@<TRIPOS>MOLECULE
CHEMBL594634__1
   59    63     0     0     0
SMALL
USER_CHARGES

@<TRIPOS>ATOM
      1 C1         -2.2921    1.3121    1.8113 C.3       1 <0>        -0.1511
      2 C2         -2.1384   -0.2051    1.6877 C.3       1 <0>        -0.6072
      3 S1         -1.6122   -0.6243    0.0031 S.o2      1 <0>         2.4944
      4 O1         -2.6537   -0.3387   -0.9204 O.2       1 <0>        -0.9324
      5 O2         -0.2907   -0.1558   -0.2278 O.2       1 <0>        -0.9326
      6 C3         -1.4741   -2.3809   -0.0043 C.ar      1 <0>        -0.6639
      7 C4         -0.2749   -2.9803    0.3344 C.ar      1 <0>        -0.0054
      8 C5         -0.1640   -4.3572    0.3295 C.ar      1 <0>        -0.1588
      9 C6         -1.2572   -5.1389   -0.0158 C.ar      1 <0>         0.1409
     10 C7         -2.4594   -4.5348   -0.3553 C.ar      1 <0>        -0.1384
     11 C8         -2.5666   -3.1577   -0.3432 C.ar      1 <0>        -0.0050
     12 O3         -1.1506   -6.4935   -0.0218 O.3       1 <0>        -0.2530
     13 C9         -0.9811   -7.1257    1.1697 C.ar      1 <0>         0.1255
     14 C10        -1.0514   -6.4047    2.3448 C.ar      1 <0>        -0.1477
     15 C11        -0.8768   -7.0566    3.5701 C.ar      1 <0>         0.0925
     16 C12        -0.6313   -8.4416    3.5887 C.ar      1 <0>         0.0308
     17 C13        -0.5643   -9.1508    2.3975 C.ar      1 <0>        -0.0445
     18 C14        -0.7434   -8.4975    1.1974 C.ar      1 <0>        -0.1037
     19 C15        -0.6756   -9.2717   -0.0938 C.3       1 <0>         0.1585
     20 N1          0.6441   -9.0902   -0.7034 N.am      1 <0>        -0.5954
     21 C16         0.8437   -7.9764   -1.6274 C.3       1 <0>         0.0705
     22 C17         2.3388   -7.6915   -1.7855 C.3       1 <0>         0.0423
     23 O4          3.0147   -8.9254   -2.0549 O.3       1 <0>        -0.3680
     24 C18         3.0153   -9.8172   -0.9375 C.3       1 <0>         0.0488
     25 C19         1.6221   -9.9482   -0.3879 C.2       1 <0>         0.4884
     26 O5          1.3743  -10.8668    0.3643 O.2       1 <0>        -0.5391
     27 N2         -0.5049   -8.7919    4.9194 N.pl3     1 <0>        -0.5726
     28 H1         -0.3306   -9.6806    5.2667 H         1 <0>         0.4333
     29 C20        -0.6707   -7.6503    5.6556 C.2       1 <0>         0.3432
     30 N3         -0.8887   -6.6350    4.8572 N.2       1 <0>        -0.4759
     31 C21        -0.6132   -7.5744    7.1325 C.ar      1 <0>         0.1754
     32 C22        -0.8044   -6.3491    7.7700 C.ar      1 <0>        -0.1165
     33 C23        -0.7481   -6.2943    9.1521 C.ar      1 <0>        -0.0738
     34 C24        -0.5023   -7.4669    9.8520 C.ar      1 <0>        -0.1547
     35 C25        -0.3218   -8.6485    9.1549 C.ar      1 <0>         0.1074
     36 N4         -0.3853   -8.6745    7.8401 N.ar      1 <0>        -0.4776
     37 H2         -2.6083    1.5640    2.8235 H         1 <0>         0.0863
     38 H3         -1.3370    1.7925    1.5988 H         1 <0>         0.0751
     39 H4         -3.0404    1.6607    1.0995 H         1 <0>         0.0752
     40 H5         -1.3901   -0.5537    2.3994 H         1 <0>         0.1362
     41 H6         -3.0935   -0.6856    1.9001 H         1 <0>         0.1363
     42 H7          0.5757   -2.3714    0.6027 H         1 <0>         0.1503
     43 H8          0.7730   -4.8249    0.5938 H         1 <0>         0.1408
     44 H9         -3.3118   -5.1410   -0.6243 H         1 <0>         0.1460
     45 H10        -3.5034   -2.6871   -0.6028 H         1 <0>         0.1525
     46 H11        -1.2400   -5.3416    2.3182 H         1 <0>         0.1392
     47 H12        -0.3755  -10.2141    2.4113 H         1 <0>         0.1429
     48 H13        -0.8401  -10.3301    0.1081 H         1 <0>         0.1005
     49 H14        -1.4440   -8.9083   -0.7761 H         1 <0>         0.0964
     50 H15         0.4190   -8.2311   -2.5984 H         1 <0>         0.0784
     51 H16         0.3453   -7.0889   -1.2375 H         1 <0>         0.1006
     52 H17         2.4938   -7.0010   -2.6145 H         1 <0>         0.1176
     53 H18         2.7272   -7.2550   -0.8654 H         1 <0>         0.0621
     54 H19         3.3759  -10.7956   -1.2550 H         1 <0>         0.1324
     55 H20         3.6718   -9.4247   -0.1609 H         1 <0>         0.0897
     56 H21        -0.9934   -5.4555    7.1938 H         1 <0>         0.1514
     57 H22        -0.8919   -5.3597    9.6739 H         1 <0>         0.1457
     58 H23        -0.4520   -7.4574   10.9308 H         1 <0>         0.1439
     59 H24        -0.1300   -9.5627    9.6970 H         1 <0>         0.1660
@<TRIPOS>BOND
     1    1    2 1
     2    1   37 1
     3    1   38 1
     4    1   39 1
     5    2    3 1
     6    2   40 1
     7    2   41 1
     8    3    4 2
     9    3    5 2
    10    3    6 1
    11    6   11 ar
    12    6    7 ar
    13    7    8 ar
    14    7   42 1
    15    8    9 ar
    16    8   43 1
    17    9   10 ar
    18    9   12 1
    19   10   11 ar
    20   10   44 1
    21   11   45 1
    22   12   13 1
    23   13   18 ar
    24   13   14 ar
    25   14   15 ar
    26   14   46 1
    27   15   30 1
    28   15   16 ar
    29   16   17 ar
    30   16   27 1
    31   17   18 ar
    32   17   47 1
    33   18   19 1
    34   19   20 1
    35   19   48 1
    36   19   49 1
    37   20   25 am
    38   20   21 1
    39   21   22 1
    40   21   50 1
    41   21   51 1
    42   22   23 1
    43   22   52 1
    44   22   53 1
    45   23   24 1
    46   24   25 1
    47   24   54 1
    48   24   55 1
    49   25   26 2
    50   27   28 1
    51   27   29 1
    52   29   30 2
    53   29   31 1
    54   31   36 ar
    55   31   32 ar
    56   32   33 ar
    57   32   56 1
    58   33   34 ar
    59   33   57 1
    60   34   35 ar
    61   34   58 1
    62   35   36 ar
    63   35   59 1
