@<TRIPOS>MOLECULE
ZINC04308649
   57    59     0     0     0
SMALL
USER_CHARGES
2-[4-[4-(difluoromethoxy)phenyl]-4-methyl-2,5-dioxo-imidazolidin-1-yl]-N-(2,3-dimethylcyclohexyl)-acetamide
@<TRIPOS>ATOM
      1 C1         -6.0505    1.3911    5.4440 C.3       1 <0>        -0.1576
      2 C2         -6.6030    0.2672    4.5651 C.3       1 <0>        -0.0821
      3 H1         -7.6923    0.2796    4.6015 H         1 <0>         0.0755
      4 C3         -6.0909   -1.0802    5.0783 C.3       1 <0>        -0.1174
      5 C4         -4.5618   -1.0976    5.0273 C.3       1 <0>        -0.1192
      6 C5         -4.0973   -0.8916    3.5842 C.3       1 <0>        -0.1294
      7 C6         -4.6094    0.4557    3.0710 C.3       1 <0>         0.1500
      8 H2         -4.2158    1.2564    3.6971 H         1 <0>         0.0927
      9 C7         -6.1385    0.4731    3.1220 C.3       1 <0>        -0.0929
     10 H3         -6.5320   -0.3276    2.4958 H         1 <0>         0.0761
     11 C8         -6.6505    1.8205    2.6087 C.3       1 <0>        -0.1507
     12 N1         -4.1646    0.6529    1.6891 N.am      1 <0>        -0.7206
     13 C9         -2.9443    1.1684    1.4410 C.2       1 <0>         0.5014
     14 O1         -2.2144    1.4690    2.3618 O.2       1 <0>        -0.5223
     15 C10        -2.4868    1.3713    0.0196 C.3       1 <0>         0.0976
     16 N2         -1.1365    1.9397    0.0176 N.am      1 <0>        -0.5593
     17 C11        -0.8713    3.2610    0.0279 C.2       1 <0>         0.5422
     18 O2         -1.6745    4.1690    0.0399 O.2       1 <0>        -0.4556
     19 C12         0.6401    3.3757    0.0141 C.3       1 <0>         0.1736
     20 N3          1.0936    1.9741    0.0022 N.am      1 <0>        -0.7157
     21 C13        -0.0144    1.2112    0.0087 C.2       1 <0>         0.7123
     22 O3          0.0021   -0.0041    0.0020 O.2       1 <0>        -0.5349
     23 C14         1.1131    4.1051   -1.2449 C.3       1 <0>        -0.1441
     24 C15         1.1297    4.0809    1.2527 C.ar      1 <0>        -0.1216
     25 C16         0.3760    5.0960    1.8123 C.ar      1 <0>        -0.0636
     26 C17         0.8199    5.7401    2.9510 C.ar      1 <0>        -0.1837
     27 C18         2.0284    5.3754    3.5263 C.ar      1 <0>         0.1165
     28 C19         2.7855    4.3604    2.9596 C.ar      1 <0>        -0.1320
     29 C20         2.3345    3.7155    1.8242 C.ar      1 <0>        -0.0603
     30 O4          2.4697    6.0110    4.6435 O.3       1 <0>        -0.3191
     31 C21         1.6383    7.0461    5.1722 C.3       1 <0>         0.4111
     32 F1          1.4728    8.0482    4.2101 F         1 <0>        -0.1968
     33 F2          0.3896    6.5140    5.5109 F         1 <0>        -0.1962
     34 H4         -4.9612    1.3787    5.4077 H         1 <0>         0.0607
     35 H5         -6.4153    2.3509    5.0784 H         1 <0>         0.0581
     36 H6         -6.3814    1.2444    6.4722 H         1 <0>         0.0560
     37 H7         -6.4845   -1.8809    4.4522 H         1 <0>         0.0632
     38 H8         -6.4218   -1.2269    6.1065 H         1 <0>         0.0653
     39 H9         -4.1970   -2.0574    5.3930 H         1 <0>         0.0651
     40 H10        -4.1683   -0.2969    5.6535 H         1 <0>         0.0672
     41 H11        -4.4909   -1.6923    2.9580 H         1 <0>         0.0642
     42 H12        -3.0080   -0.9040    3.5478 H         1 <0>         0.0670
     43 H13        -6.3196    1.9672    1.5806 H         1 <0>         0.0546
     44 H14        -7.7399    1.8329    2.6451 H         1 <0>         0.0585
     45 H15        -6.2570    2.6212    3.2349 H         1 <0>         0.0599
     46 H16        -4.7484    0.4125    0.9527 H         1 <0>         0.4009
     47 H17        -3.1689    2.0535   -0.4878 H         1 <0>         0.1272
     48 H18        -2.4783    0.4130   -0.4997 H         1 <0>         0.1298
     49 H19         2.0120    1.6622   -0.0085 H         1 <0>         0.4412
     50 H20         0.7163    3.6024   -2.1268 H         1 <0>         0.0734
     51 H21         0.7576    5.1353   -1.2231 H         1 <0>         0.0878
     52 H22         2.2025    4.0975   -1.2816 H         1 <0>         0.0848
     53 H23        -0.5626    5.3825    1.3615 H         1 <0>         0.1447
     54 H24         0.2287    6.5300    3.3903 H         1 <0>         0.1380
     55 H25         3.7265    4.0744    3.4058 H         1 <0>         0.1406
     56 H26         2.9234    2.9250    1.3828 H         1 <0>         0.1332
     57 H27         2.1061    7.4695    6.0610 H         1 <0>         0.1846
@<TRIPOS>BOND
     1    1    2 1
     2    1   34 1
     3    1   35 1
     4    1   36 1
     5    2    3 1
     6    2    9 1
     7    2    4 1
     8    4    5 1
     9    4   37 1
    10    4   38 1
    11    5    6 1
    12    5   39 1
    13    5   40 1
    14    6    7 1
    15    6   41 1
    16    6   42 1
    17    7    8 1
    18    7    9 1
    19    7   12 1
    20    9   10 1
    21    9   11 1
    22   11   43 1
    23   11   44 1
    24   11   45 1
    25   12   13 am
    26   12   46 1
    27   13   14 2
    28   13   15 1
    29   15   16 1
    30   15   47 1
    31   15   48 1
    32   16   21 am
    33   16   17 am
    34   17   18 2
    35   17   19 1
    36   19   20 1
    37   19   23 1
    38   19   24 1
    39   20   21 am
    40   20   49 1
    41   21   22 2
    42   23   50 1
    43   23   51 1
    44   23   52 1
    45   24   29 ar
    46   24   25 ar
    47   25   26 ar
    48   25   53 1
    49   26   27 ar
    50   26   54 1
    51   27   28 ar
    52   27   30 1
    53   28   29 ar
    54   28   55 1
    55   29   56 1
    56   30   31 1
    57   31   32 1
    58   31   33 1
    59   31   57 1
@<TRIPOS>MOLECULE
ZINC08961243
   47    50     0     0     0
SMALL
USER_CHARGES
4-ethoxy-3-fluoro-N-(oxoBLAHyl)-benzenesulfonamide
@<TRIPOS>ATOM
      1 C1          4.3644    9.5568   -4.9852 C.3       1 <0>        -0.1543
      2 C2          4.0068    8.1216   -4.5939 C.3       1 <0>         0.0486
      3 O1          5.1889    7.3185   -4.5969 O.3       1 <0>        -0.2998
      4 C3          5.0449    6.0070   -4.2687 C.ar      1 <0>         0.1604
      5 C4          3.7924    5.5039   -3.9512 C.ar      1 <0>        -0.2035
      6 C5          3.6473    4.1694   -3.6235 C.ar      1 <0>         0.0174
      7 C6          4.7511    3.3370   -3.6015 C.ar      1 <0>        -0.6926
      8 C7          6.0018    3.8345   -3.9175 C.ar      1 <0>        -0.0134
      9 C8          6.1521    5.1684   -4.2514 C.ar      1 <0>         0.0521
     10 F1          7.3740    5.6548   -4.5607 F         1 <0>        -0.1233
     11 S1          4.5623    1.6373   -3.1771 S.o2      1 <0>         2.6922
     12 O2          5.6905    0.9578   -3.7106 O.2       1 <0>        -0.9435
     13 O3          3.2287    1.2804   -3.5136 O.2       1 <0>        -0.9404
     14 N1          4.6799    1.5282   -1.5289 N.pl3     1 <0>        -1.0596
     15 C9          3.7272    2.1535   -0.7164 C.ar      1 <0>         0.1095
     16 C10         4.0541    3.3216   -0.0361 C.ar      1 <0>        -0.0648
     17 C11         3.1157    3.9497    0.7575 C.ar      1 <0>        -0.1240
     18 C12         1.8384    3.4211    0.8814 C.ar      1 <0>         0.1433
     19 C13         1.5084    2.2350    0.2179 C.ar      1 <0>        -0.1569
     20 C14         2.4610    1.6087   -0.5917 C.ar      1 <0>        -0.0280
     21 C15         0.1737    1.6388    0.3675 C.2       1 <0>         0.5706
     22 O4          0.1041    0.4270    0.4353 O.2       1 <0>        -0.5146
     23 N2         -0.9609    2.3220    0.4289 N.am      1 <0>        -0.6528
     24 C16        -1.0931    3.7081    0.3564 C.ar      1 <0>         0.1184
     25 C17        -2.1829    4.2415   -0.3243 C.ar      1 <0>        -0.1238
     26 C18        -2.3792    5.6079   -0.3624 C.ar      1 <0>        -0.0946
     27 C19        -1.4922    6.4536    0.2770 C.ar      1 <0>        -0.1125
     28 C20        -0.3992    5.9329    0.9433 C.ar      1 <0>        -0.0996
     29 C21        -0.1884    4.5613    0.9753 C.ar      1 <0>         0.0713
     30 O5          0.9089    4.0809    1.6114 O.3       1 <0>        -0.2606
     31 H1          4.8051    9.5626   -5.9821 H         1 <0>         0.0696
     32 H2          3.4628   10.1694   -4.9829 H         1 <0>         0.0844
     33 H3          5.0801    9.9610   -4.2692 H         1 <0>         0.0695
     34 H4          3.2912    7.7174   -5.3099 H         1 <0>         0.0702
     35 H5          3.5661    8.1158   -3.5970 H         1 <0>         0.0701
     36 H6          2.9299    6.1539   -3.9640 H         1 <0>         0.1494
     37 H7          2.6711    3.7769   -3.3802 H         1 <0>         0.1478
     38 H8          6.8617    3.1812   -3.9040 H         1 <0>         0.1626
     39 H9          5.4092    1.0310   -1.1266 H         1 <0>         0.4314
     40 H10         5.0458    3.7389   -0.1293 H         1 <0>         0.1472
     41 H11         3.3762    4.8559    1.2840 H         1 <0>         0.1498
     42 H12         2.2089    0.7008   -1.1195 H         1 <0>         0.1548
     43 H13        -1.7766    1.8088    0.5389 H         1 <0>         0.4164
     44 H14        -2.8779    3.5842   -0.8256 H         1 <0>         0.1385
     45 H15        -3.2271    6.0163   -0.8921 H         1 <0>         0.1374
     46 H16        -1.6531    7.5213    0.2555 H         1 <0>         0.1380
     47 H17         0.2936    6.5956    1.4407 H         1 <0>         0.1414
@<TRIPOS>BOND
     1    1    2 1
     2    1   31 1
     3    1   32 1
     4    1   33 1
     5    2    3 1
     6    2   34 1
     7    2   35 1
     8    3    4 1
     9    4    9 ar
    10    4    5 ar
    11    5    6 ar
    12    5   36 1
    13    6    7 ar
    14    6   37 1
    15    7    8 ar
    16    7   11 1
    17    8    9 ar
    18    8   38 1
    19    9   10 1
    20   11   12 2
    21   11   13 2
    22   11   14 1
    23   14   15 1
    24   14   39 1
    25   15   20 ar
    26   15   16 ar
    27   16   17 ar
    28   16   40 1
    29   17   18 ar
    30   17   41 1
    31   18   30 1
    32   18   19 ar
    33   19   20 ar
    34   19   21 1
    35   20   42 1
    36   21   22 2
    37   21   23 am
    38   23   24 1
    39   23   43 1
    40   24   29 ar
    41   24   25 ar
    42   25   26 ar
    43   25   44 1
    44   26   27 ar
    45   26   45 1
    46   27   28 ar
    47   27   46 1
    48   28   29 ar
    49   28   47 1
    50   29   30 1
@<TRIPOS>MOLECULE
ZINC02790923
   49    53     0     0     0
SMALL
USER_CHARGES
(4R)-6-amino-4-[4-(difluoromethoxy)phenyl]-3-(2-furyl)-1-phenyl-4H-pyrano[5,6-d]pyrazole-5-carbonitrile
@<TRIPOS>ATOM
      1 C1         -7.0762   -2.1288    1.8401 C.ar      1 <0>        -0.1120
      2 C2         -6.1089   -1.5183    2.6171 C.ar      1 <0>        -0.1004
      3 C3         -4.8198   -1.3855    2.1395 C.ar      1 <0>        -0.1000
      4 C4         -4.4956   -1.8658    0.8775 C.ar      1 <0>         0.1371
      5 C5         -5.4706   -2.4737    0.0975 C.ar      1 <0>        -0.1178
      6 C6         -6.7565   -2.6081    0.5830 C.ar      1 <0>        -0.0982
      7 N1         -3.1893   -1.7322    0.3900 N.pl3     1 <0>        -0.2909
      8 C7         -2.5396   -2.6198   -0.3973 C.2       1 <0>         0.2779
      9 C8         -1.2951   -2.1204   -0.6470 C.2       1 <0>        -0.2366
     10 C9         -1.1829   -0.8876    0.0081 C.2       1 <0>         0.1964
     11 N2         -2.3221   -0.6567    0.6377 N.2       1 <0>        -0.2324
     12 C10         0.0021   -0.0041    0.0020 C.2       1 <0>         0.0412
     13 C11        -0.0164    1.3552    0.0095 C.2       1 <0>        -0.1549
     14 C12         1.3278    1.7796   -0.0011 C.2       1 <0>        -0.2156
     15 C13         2.0917    0.6701   -0.0143 C.2       1 <0>        -0.0180
     16 O1          1.2875   -0.4059   -0.0124 O.3       1 <0>        -0.1518
     17 C14        -0.2817   -2.8451   -1.4946 C.3       1 <0>         0.1251
     18 H1          0.1447   -2.1583   -2.2258 H         1 <0>         0.1007
     19 C15        -0.9845   -3.9739   -2.2067 C.2       1 <0>        -0.2552
     20 C16        -2.2328   -4.3728   -1.8757 C.2       1 <0>         0.4353
     21 O2         -2.9655   -3.8076   -0.8948 O.3       1 <0>        -0.2235
     22 N3         -2.7870   -5.4132   -2.5792 N.pl3     1 <0>        -0.8290
     23 C17        -0.3042   -4.6481   -3.2712 C.1       1 <0>         0.2710
     24 N4          0.2355   -5.1829   -4.1157 N.1       1 <0>        -0.4337
     25 C18         0.8118   -3.3988   -0.6178 C.ar      1 <0>        -0.0950
     26 C19         0.5034   -4.3021    0.3826 C.ar      1 <0>        -0.0618
     27 C20         1.5047   -4.8154    1.1840 C.ar      1 <0>        -0.1892
     28 C21         2.8190   -4.4149    0.9921 C.ar      1 <0>         0.1043
     29 C22         3.1251   -3.5041   -0.0087 C.ar      1 <0>        -0.1320
     30 C23         2.1210   -2.9983   -0.8114 C.ar      1 <0>        -0.0597
     31 O3          3.8050   -4.9135    1.7833 O.3       1 <0>        -0.3209
     32 C24         3.4166   -5.8470    2.7932 C.3       1 <0>         0.4112
     33 F1          2.5064   -5.2393    3.6647 F         1 <0>        -0.1983
     34 F2          2.8167   -6.9597    2.1939 F         1 <0>        -0.1985
     35 H2         -8.0836   -2.2312    2.2157 H         1 <0>         0.1329
     36 H3         -6.3618   -1.1447    3.5984 H         1 <0>         0.1366
     37 H4         -4.0649   -0.9082    2.7467 H         1 <0>         0.1380
     38 H5         -5.2225   -2.8442   -0.8862 H         1 <0>         0.1301
     39 H6         -7.5141   -3.0848   -0.0214 H         1 <0>         0.1358
     40 H7         -0.8917    1.9877    0.0173 H         1 <0>         0.1535
     41 H8          1.6788    2.8009    0.0014 H         1 <0>         0.1540
     42 H9          3.1715    0.6491   -0.0247 H         1 <0>         0.2087
     43 H10        -3.6814   -5.7217   -2.3649 H         1 <0>         0.4119
     44 H11        -2.2843   -5.8399   -3.2906 H         1 <0>         0.4288
     45 H12        -0.5206   -4.6096    0.5349 H         1 <0>         0.1170
     46 H13         1.2639   -5.5240    1.9626 H         1 <0>         0.1306
     47 H14         4.1474   -3.1905   -0.1598 H         1 <0>         0.1341
     48 H15         2.3587   -2.2893   -1.5906 H         1 <0>         0.1318
     49 H16         4.2970   -6.1655    3.3515 H         1 <0>         0.1817
@<TRIPOS>BOND
     1    1    6 ar
     2    1    2 ar
     3    1   35 1
     4    2    3 ar
     5    2   36 1
     6    3    4 ar
     7    3   37 1
     8    4    5 ar
     9    4    7 1
    10    5    6 ar
    11    5   38 1
    12    6   39 1
    13    7   11 1
    14    7    8 1
    15    8   21 1
    16    8    9 2
    17    9   10 1
    18    9   17 1
    19   10   11 2
    20   10   12 1
    21   12   16 1
    22   12   13 2
    23   13   14 1
    24   13   40 1
    25   14   15 2
    26   14   41 1
    27   15   16 1
    28   15   42 1
    29   17   18 1
    30   17   19 1
    31   17   25 1
    32   19   20 2
    33   19   23 1
    34   20   21 1
    35   20   22 1
    36   22   43 1
    37   22   44 1
    38   23   24 3
    39   25   30 ar
    40   25   26 ar
    41   26   27 ar
    42   26   45 1
    43   27   28 ar
    44   27   46 1
    45   28   29 ar
    46   28   31 1
    47   29   30 ar
    48   29   47 1
    49   30   48 1
    50   31   32 1
    51   32   33 1
    52   32   34 1
    53   32   49 1
@<TRIPOS>MOLECULE
ZINC31631854
   36    39     0     0     0
SMALL
USER_CHARGES
3-(2-bromophenyl)-5-[[5-(2-thienyl)-1,2,4-oxadiazol-3-yl]methylsulfanyl]-1,2,4-triazol-4-amine
@<TRIPOS>ATOM
      1 C1         -2.2560   -2.9009    0.7923 C.ar      1 <0>        -0.1001
      2 C2         -3.3716   -2.5855    0.0366 C.ar      1 <0>        -0.0978
      3 C3         -3.3929   -1.4341   -0.7295 C.ar      1 <0>        -0.0877
      4 C4         -2.3014   -0.5883   -0.7402 C.ar      1 <0>        -0.0578
      5 C5         -1.1708   -0.9038    0.0161 C.ar      1 <0>         0.0117
      6 C6         -1.1568   -2.0676    0.7867 C.ar      1 <0>        -0.1027
      7 C7          0.0038   -0.0063    0.0053 C.2       1 <0>         0.1882
      8 N1         -0.0104    1.2990    0.1443 N.2       1 <0>        -0.2272
      9 N2          1.1879    1.7595    0.0854 N.2       1 <0>        -0.2738
     10 C8          2.0410    0.7761   -0.0950 C.2       1 <0>         0.1305
     11 N3          1.3181   -0.3813   -0.1522 N.pl3     1 <0>        -0.2016
     12 N4          1.7997   -1.6473   -0.3290 N.3       1 <0>        -0.7623
     13 S1          3.7910    0.9235   -0.2374 S.3       1 <0>         0.0362
     14 C9          3.9706    2.7162   -0.0639 C.3       1 <0>        -0.0169
     15 C10         5.4285    3.0862   -0.1563 C.2       1 <0>         0.1846
     16 N5          6.0971    3.3940   -1.2774 N.2       1 <0>        -0.4591
     17 C11         7.3387    3.6496   -0.8908 C.2       1 <0>         0.2794
     18 O1          7.3659    3.4856    0.4427 O.3       1 <0>         0.1016
     19 N6          6.2635    3.1701    0.8376 N.2       1 <0>        -0.3587
     20 C12         8.4639    4.0355   -1.7509 C.2       1 <0>        -0.1601
     21 C13         9.7747    4.3127   -1.4012 C.2       1 <0>        -0.0799
     22 C14        10.6350    4.6535   -2.4180 C.2       1 <0>        -0.1762
     23 C15        10.1690    4.7014   -3.6918 C.2       1 <0>        -0.1881
     24 S2          8.5010    4.2618   -3.5201 S.3       1 <0>         0.2244
     25 Br1        -2.3353    0.9898   -1.7814 Br        1 <0>        -0.0192
     26 H1         -2.2461   -3.8016    1.3882 H         1 <0>         0.1382
     27 H2         -4.2294   -3.2417    0.0448 H         1 <0>         0.1392
     28 H3         -4.2665   -1.1940   -1.3173 H         1 <0>         0.1422
     29 H4         -0.2869   -2.3153    1.3770 H         1 <0>         0.1333
     30 H5          2.8810   -1.8134   -0.4436 H         1 <0>         0.4497
     31 H6          1.1062   -2.5007   -0.3568 H         1 <0>         0.4487
     32 H7          3.4128    3.2200   -0.8671 H         1 <0>         0.1364
     33 H8          3.5733    3.0318    0.9121 H         1 <0>         0.1320
     34 H9         10.1066    4.2638   -0.3746 H         1 <0>         0.1510
     35 H10        11.6693    4.8808   -2.2055 H         1 <0>         0.1456
     36 H11        10.7081    4.9488   -4.5944 H         1 <0>         0.1962
@<TRIPOS>BOND
     1    1    6 ar
     2    1    2 ar
     3    1   26 1
     4    2    3 ar
     5    2   27 1
     6    3    4 ar
     7    3   28 1
     8    4    5 ar
     9    4   25 1
    10    5    6 ar
    11    5    7 1
    12    6   29 1
    13    7   11 1
    14    7    8 2
    15    8    9 1
    16    9   10 2
    17   10   11 1
    18   10   13 1
    19   11   12 1
    20   12   30 1
    21   12   31 1
    22   13   14 1
    23   14   15 1
    24   14   32 1
    25   14   33 1
    26   15   19 2
    27   15   16 1
    28   16   17 2
    29   17   18 1
    30   17   20 1
    31   18   19 1
    32   20   24 1
    33   20   21 2
    34   21   22 1
    35   21   34 1
    36   22   23 2
    37   22   35 1
    38   23   24 1
    39   23   36 1
@<TRIPOS>MOLECULE
ZINC45890807
   50    52     0     0     0
SMALL
USER_CHARGES

@<TRIPOS>ATOM
      1 C1         -0.0167    1.3784    0.0096 C.ar      1 <0>        -0.0825
      2 C2          1.1695    2.0865    0.0021 C.ar      1 <0>        -0.1466
      3 C3          2.3802    1.4093   -0.0131 C.ar      1 <0>         0.1155
      4 C4          2.3963    0.0221   -0.0206 C.ar      1 <0>        -0.1471
      5 C5          1.2074   -0.6814   -0.0130 C.ar      1 <0>        -0.0830
      6 C6          0.0021   -0.0041    0.0020 C.ar      1 <0>        -0.1213
      7 C7         -1.2934   -0.7740    0.0107 C.3       1 <0>         0.1621
      8 N1         -1.7268   -1.0161   -1.3676 N.am      1 <0>        -0.7275
      9 C8         -2.8683   -1.6917   -1.6062 C.2       1 <0>         0.5173
     10 O1         -3.5367   -2.0993   -0.6799 O.2       1 <0>        -0.5367
     11 C9         -3.3142   -1.9407   -3.0241 C.3       1 <0>        -0.1023
     12 C10        -2.2436   -2.7490   -3.7607 C.3       1 <0>        -0.1250
     13 C11        -2.6844   -2.9704   -5.2110 C.3       1 <0>         0.1482
     14 N2         -4.0159   -3.5917   -5.2109 N.pl3     1 <0>        -0.6780
     15 C12        -5.0977   -2.9438   -4.4568 C.3       1 <0>         0.1458
     16 C13        -4.6298   -2.7226   -3.0149 C.3       1 <0>        -0.1128
     17 C14        -4.2489   -4.7754   -5.9147 C.ar      1 <0>         0.2784
     18 C15        -4.0728   -6.0034   -5.2893 C.ar      1 <0>        -0.1270
     19 C16        -4.3045   -7.1718   -5.9879 C.ar      1 <0>        -0.0156
     20 C17        -4.7115   -7.1205   -7.3087 C.ar      1 <0>        -0.1905
     21 C18        -4.8872   -5.9000   -7.9343 C.ar      1 <0>        -0.0004
     22 C19        -4.6627   -4.7274   -7.2397 C.ar      1 <0>        -0.0676
     23 N3         -4.8570   -3.4214   -7.9083 N.pl3     1 <0>         0.0371
     24 O2         -5.2173   -3.3805   -9.0617 O.2       1 <0>        -0.1720
     25 O3         -4.6555   -2.3956   -7.3011 O.3       1 <0>        -0.1201
     26 C20        -4.9634   -8.3976   -8.0679 C.3       1 <0>         0.5155
     27 F1         -4.7205   -9.4928   -7.2319 F         1 <0>        -0.1704
     28 F2         -6.2931   -8.4278   -8.5015 F         1 <0>        -0.1694
     29 F3         -4.1104   -8.4580   -9.1751 F         1 <0>        -0.1697
     30 O4          3.5484    2.1036   -0.0209 O.3       1 <0>        -0.4998
     31 H1         -0.9594    1.9052    0.0259 H         1 <0>         0.1297
     32 H2          1.1543    3.1664    0.0076 H         1 <0>         0.1319
     33 H3          3.3375   -0.5074   -0.0328 H         1 <0>         0.1315
     34 H4          1.2194   -1.7613   -0.0189 H         1 <0>         0.1288
     35 H5         -1.1460   -1.7274    0.5180 H         1 <0>         0.0768
     36 H6         -2.0553   -0.1973    0.5352 H         1 <0>         0.0775
     37 H7         -1.1923   -0.6901   -2.1085 H         1 <0>         0.4022
     38 H8         -3.4620   -0.9872   -3.5310 H         1 <0>         0.1028
     39 H9         -1.3008   -2.2020   -3.7465 H         1 <0>         0.0771
     40 H10        -2.1128   -3.7129   -3.2690 H         1 <0>         0.0716
     41 H11        -2.7280   -2.0129   -5.7300 H         1 <0>         0.0729
     42 H12        -1.9744   -3.6281   -5.7124 H         1 <0>         0.0696
     43 H13        -5.3381   -1.9841   -4.9142 H         1 <0>         0.0714
     44 H14        -5.9799   -3.5839   -4.4605 H         1 <0>         0.0698
     45 H15        -4.4766   -3.6868   -2.5302 H         1 <0>         0.0725
     46 H16        -5.3854   -2.1569   -2.4700 H         1 <0>         0.0819
     47 H17        -3.7547   -6.0442   -4.2580 H         1 <0>         0.1597
     48 H18        -4.1675   -8.1267   -5.5024 H         1 <0>         0.1594
     49 H19        -5.2044   -5.8635   -8.9660 H         1 <0>         0.1638
     50 H20         3.8951    2.3001    0.8601 H         1 <0>         0.3943
@<TRIPOS>BOND
     1    1    6 ar
     2    1    2 ar
     3    1   31 1
     4    2    3 ar
     5    2   32 1
     6    3    4 ar
     7    3   30 1
     8    4    5 ar
     9    4   33 1
    10    5    6 ar
    11    5   34 1
    12    6    7 1
    13    7    8 1
    14    7   35 1
    15    7   36 1
    16    8    9 am
    17    8   37 1
    18    9   10 2
    19    9   11 1
    20   11   16 1
    21   11   12 1
    22   11   38 1
    23   12   13 1
    24   12   39 1
    25   12   40 1
    26   13   14 1
    27   13   41 1
    28   13   42 1
    29   14   15 1
    30   14   17 1
    31   15   16 1
    32   15   43 1
    33   15   44 1
    34   16   45 1
    35   16   46 1
    36   17   22 ar
    37   17   18 ar
    38   18   19 ar
    39   18   47 1
    40   19   20 ar
    41   19   48 1
    42   20   21 ar
    43   20   26 1
    44   21   22 ar
    45   21   49 1
    46   22   23 1
    47   23   24 2
    48   23   25 1
    49   26   27 1
    50   26   28 1
    51   26   29 1
    52   30   50 1
@<TRIPOS>MOLECULE
ZINC02059235
   44    45     0     0     0
SMALL
USER_CHARGES
allyl 4-(3-bromo-4-hydroxy-5-methoxy-phenyl)-1,6-dimethyl-2-oxo-3,4-dihydropyrimidine-5-carboxylate
@<TRIPOS>ATOM
      1 C1         -7.2619   -0.3821   -3.1369 C.3       1 <0>        -0.1293
      2 C2         -6.5872   -0.4914   -1.7938 C.2       1 <0>         0.2621
      3 C3         -5.3339   -0.0127   -1.6391 C.2       1 <0>        -0.2874
      4 C4         -4.6932   -0.1421   -0.2721 C.3       1 <0>         0.2402
      5 H1         -4.4279    0.8582    0.0701 H         1 <0>         0.0984
      6 N1         -5.4954   -0.7848    0.7825 N.am      1 <0>        -0.7115
      7 C5         -6.7350   -1.2140    0.4737 C.2       1 <0>         0.7036
      8 O1         -7.4052   -1.7458    1.3373 O.2       1 <0>        -0.5563
      9 N2         -7.2527   -1.0734   -0.7531 N.am      1 <0>        -0.5424
     10 C6         -8.6096   -1.5714   -0.9921 C.3       1 <0>         0.0651
     11 C7         -3.4173   -0.9285   -0.4295 C.ar      1 <0>        -0.0745
     12 C8         -3.4630   -2.3081   -0.5113 C.ar      1 <0>        -0.1594
     13 C9         -2.2912   -3.0329   -0.6561 C.ar      1 <0>         0.1076
     14 C10        -1.0690   -2.3700   -0.7140 C.ar      1 <0>         0.1086
     15 C11        -1.0303   -0.9867   -0.6368 C.ar      1 <0>        -0.0830
     16 C12        -2.2043   -0.2691   -0.4923 C.ar      1 <0>        -0.0748
     17 Br1         0.6275   -0.0808   -0.7210 Br        1 <0>        -0.0229
     18 O2          0.0844   -3.0776   -0.8510 O.3       1 <0>        -0.4729
     19 O3         -2.3347   -4.3898   -0.7358 O.3       1 <0>        -0.3021
     20 C13        -3.6281   -4.9959   -0.7796 C.3       1 <0>         0.0253
     21 C14        -4.6433    0.5903   -2.7163 C.2       1 <0>         0.5373
     22 O4         -5.1307    0.5842   -3.8312 O.2       1 <0>        -0.5159
     23 O5         -3.4439    1.1724   -2.5075 O.3       1 <0>        -0.3421
     24 C15        -2.8546    1.8589   -3.6136 C.3       1 <0>         0.0969
     25 C16        -1.4772    2.3368   -3.2322 C.2       1 <0>        -0.1599
     26 C17        -0.4705    2.1535   -4.0501 C.2       1 <0>        -0.1622
     27 H2         -8.2598   -0.8167   -3.0786 H         1 <0>         0.0760
     28 H3         -7.3387    0.6675   -3.4206 H         1 <0>         0.1043
     29 H4         -6.6752   -0.9182   -3.8829 H         1 <0>         0.1089
     30 H5         -5.1401   -0.8962    1.6782 H         1 <0>         0.4348
     31 H6         -9.0049   -2.0044   -0.0732 H         1 <0>         0.1086
     32 H7         -9.2484   -0.7473   -1.3097 H         1 <0>         0.0809
     33 H8         -8.5850   -2.3332   -1.7714 H         1 <0>         0.0799
     34 H9         -4.4123   -2.8207   -0.4620 H         1 <0>         0.1304
     35 H10        -2.1728    0.8085   -0.4280 H         1 <0>         0.1450
     36 H11         0.3469   -3.2280   -1.7695 H         1 <0>         0.3909
     37 H12        -3.5210   -6.0701   -0.9304 H         1 <0>         0.1056
     38 H13        -4.1480   -4.8111    0.1604 H         1 <0>         0.0565
     39 H14        -4.2018   -4.5689   -1.6022 H         1 <0>         0.0545
     40 H15        -2.7815    1.1816   -4.4645 H         1 <0>         0.0727
     41 H16        -3.4744    2.7143   -3.8823 H         1 <0>         0.0761
     42 H17        -1.3200    2.8303   -2.2844 H         1 <0>         0.1201
     43 H18        -0.6276    1.6600   -4.9978 H         1 <0>         0.0985
     44 H19         0.5167    2.4960   -3.7768 H         1 <0>         0.1076
@<TRIPOS>BOND
     1    1    2 1
     2    1   27 1
     3    1   28 1
     4    1   29 1
     5    2    9 1
     6    2    3 2
     7    3    4 1
     8    3   21 1
     9    4    5 1
    10    4    6 1
    11    4   11 1
    12    6    7 am
    13    6   30 1
    14    7    8 2
    15    7    9 am
    16    9   10 1
    17   10   31 1
    18   10   32 1
    19   10   33 1
    20   11   16 ar
    21   11   12 ar
    22   12   13 ar
    23   12   34 1
    24   13   14 ar
    25   13   19 1
    26   14   15 ar
    27   14   18 1
    28   15   16 ar
    29   15   17 1
    30   16   35 1
    31   18   36 1
    32   19   20 1
    33   20   37 1
    34   20   38 1
    35   20   39 1
    36   21   22 2
    37   21   23 1
    38   23   24 1
    39   24   25 1
    40   24   40 1
    41   24   41 1
    42   25   26 2
    43   25   42 1
    44   26   43 1
    45   26   44 1
@<TRIPOS>MOLECULE
ZINC12987743
   46    49     0     0     0
SMALL
USER_CHARGES
2-[(4R)-2,5-dioxospiro[imidazolidine-4,1'-indane]-1-yl]-N-[3-(trifluoromethoxy)phenyl]acetamide
@<TRIPOS>ATOM
      1 C1         -7.8750    6.2645   -2.7049 C.ar      1 <0>        -0.0975
      2 C2         -7.2297    5.6904   -1.6253 C.ar      1 <0>        -0.1215
      3 C3         -6.1877    6.3563   -1.0113 C.ar      1 <0>        -0.0740
      4 C4         -5.7838    7.5989   -1.4715 C.ar      1 <0>        -0.1170
      5 C5         -6.4300    8.1727   -2.5535 C.ar      1 <0>        -0.0696
      6 C6         -7.4750    7.5030   -3.1666 C.ar      1 <0>        -0.1103
      7 C7         -5.8100    9.5188   -2.8662 C.3       1 <0>        -0.0837
      8 C8         -5.0020    9.8966   -1.6040 C.3       1 <0>        -0.1106
      9 C9         -4.6974    8.5232   -0.9923 C.3       1 <0>         0.1687
     10 C10        -3.3303    8.0399   -1.4010 C.2       1 <0>         0.5456
     11 O1         -2.9252    7.8436   -2.5267 O.2       1 <0>        -0.4472
     12 N1         -2.6530    7.8702   -0.2446 N.am      1 <0>        -0.5653
     13 C11        -3.4048    8.1876    0.8176 C.2       1 <0>         0.7093
     14 O2         -3.0144    8.1210    1.9666 O.2       1 <0>        -0.5337
     15 N2         -4.6440    8.5890    0.4684 N.am      1 <0>        -0.7105
     16 C12        -1.2669    7.4033   -0.1627 C.3       1 <0>         0.1018
     17 C13        -1.2486    5.9001   -0.0574 C.2       1 <0>         0.5010
     18 O3         -2.2908    5.2798   -0.0514 O.2       1 <0>        -0.4981
     19 N3         -0.0740    5.2449    0.0300 N.am      1 <0>        -0.6674
     20 C14        -0.0505    3.8460    0.0165 C.ar      1 <0>         0.1844
     21 C15         0.9098    3.1593    0.7489 C.ar      1 <0>        -0.1585
     22 C16         0.9299    1.7783    0.7393 C.ar      1 <0>        -0.0557
     23 C17         0.0021    1.0762   -0.0067 C.ar      1 <0>        -0.2049
     24 C18        -0.9594    1.7567   -0.7401 C.ar      1 <0>         0.1268
     25 C19        -0.9861    3.1427   -0.7288 C.ar      1 <0>        -0.1293
     26 O4         -1.8740    1.0650   -1.4693 O.3       1 <0>        -0.3082
     27 C20        -1.7868   -0.3609   -1.4350 C.3       1 <0>         0.6048
     28 F1         -1.9419   -0.8061   -0.1178 F         1 <0>        -0.1635
     29 F2         -2.7957   -0.9092   -2.2344 F         1 <0>        -0.1293
     30 F3         -0.5376   -0.7636   -1.9193 F         1 <0>        -0.1638
     31 H1         -8.6904    5.7452   -3.1864 H         1 <0>         0.1299
     32 H2         -7.5408    4.7219   -1.2624 H         1 <0>         0.1293
     33 H3         -5.6850    5.9061   -0.1681 H         1 <0>         0.1215
     34 H4         -7.9794    7.9509   -4.0101 H         1 <0>         0.1272
     35 H5         -6.5880   10.2591   -3.0526 H         1 <0>         0.0897
     36 H6         -5.1484    9.4391   -3.7287 H         1 <0>         0.0943
     37 H7         -5.6036   10.4997   -0.9240 H         1 <0>         0.0995
     38 H8         -4.0813   10.4161   -1.8697 H         1 <0>         0.0910
     39 H9         -5.3567    8.8656    1.0654 H         1 <0>         0.4440
     40 H10        -0.7894    7.8350    0.7169 H         1 <0>         0.1355
     41 H11        -0.7262    7.7114   -1.0576 H         1 <0>         0.1339
     42 H12         0.7551    5.7432    0.1023 H         1 <0>         0.4188
     43 H13         1.6383    3.7057    1.3296 H         1 <0>         0.1373
     44 H14         1.6744    1.2461    1.3128 H         1 <0>         0.1408
     45 H15         0.0227   -0.0036   -0.0152 H         1 <0>         0.1363
     46 H16        -1.7339    3.6741   -1.2987 H         1 <0>         0.1485
@<TRIPOS>BOND
     1    1    6 ar
     2    1    2 ar
     3    1   31 1
     4    2    3 ar
     5    2   32 1
     6    3    4 ar
     7    3   33 1
     8    4    9 1
     9    4    5 ar
    10    5    6 ar
    11    5    7 1
    12    6   34 1
    13    7    8 1
    14    7   35 1
    15    7   36 1
    16    8    9 1
    17    8   37 1
    18    8   38 1
    19    9   15 1
    20    9   10 1
    21   10   11 2
    22   10   12 am
    23   12   13 am
    24   12   16 1
    25   13   14 2
    26   13   15 am
    27   15   39 1
    28   16   17 1
    29   16   40 1
    30   16   41 1
    31   17   18 2
    32   17   19 am
    33   19   20 1
    34   19   42 1
    35   20   25 ar
    36   20   21 ar
    37   21   22 ar
    38   21   43 1
    39   22   23 ar
    40   22   44 1
    41   23   24 ar
    42   23   45 1
    43   24   25 ar
    44   24   26 1
    45   25   46 1
    46   26   27 1
    47   27   28 1
    48   27   29 1
    49   27   30 1
@<TRIPOS>MOLECULE
ZINC20503258
   54    58     0     0     0
SMALL
USER_CHARGES
2-[(6R)-6-(2-furyl)-7-hydroxy-6,8,9,10-tetrahydrobenzo[b][1,4]benzodiazepin-5-yl]-N-(2-furylmethyl)acetamide
@<TRIPOS>ATOM
      1 C1          2.5763    9.9465    0.0263 C.ar      1 <0>        -0.1187
      2 C2          1.8849    8.7854    0.3267 C.ar      1 <0>        -0.0958
      3 C3          2.3781    7.9167    1.2817 C.ar      1 <0>        -0.1275
      4 C4          3.5614    8.1994    1.9416 C.ar      1 <0>         0.1168
      5 C5          4.2859    9.3681    1.6294 C.ar      1 <0>         0.0885
      6 C6          3.7604   10.2390    0.6644 C.ar      1 <0>        -0.1168
      7 N1          5.4547    9.6665    2.2169 N.pl3     1 <0>        -0.5774
      8 C7          5.9171    9.5603    3.4120 C.2       1 <0>         0.3141
      9 C8          7.1961   10.3323    3.7010 C.3       1 <0>        -0.1120
     10 C9          7.1539   10.8547    5.1372 C.3       1 <0>        -0.1123
     11 C10         7.0370    9.6538    6.0803 C.3       1 <0>        -0.1378
     12 C11         5.8315    8.8447    5.7061 C.2       1 <0>         0.3456
     13 C12         5.3281    8.8123    4.4551 C.2       1 <0>        -0.3449
     14 C13         4.1305    7.9590    4.2192 C.3       1 <0>         0.2460
     15 H1          3.2569    8.6269    4.2471 H         1 <0>         0.0961
     16 N2          4.0524    7.3553    2.9158 N.pl3     1 <0>        -0.4797
     17 C14         3.2870    6.1022    2.9610 C.3       1 <0>         0.0287
     18 C15         1.8867    6.3858    3.4403 C.2       1 <0>         0.4942
     19 O1          1.5682    7.5148    3.7483 O.2       1 <0>        -0.5294
     20 N3          0.9882    5.3849    3.5266 N.am      1 <0>        -0.7352
     21 C16        -0.3731    5.6607    3.9925 C.3       1 <0>         0.2073
     22 C17        -1.1712    4.3824    3.9964 C.2       1 <0>        -0.0397
     23 C18        -1.2751    3.5230    5.0260 C.2       1 <0>        -0.1798
     24 C19        -2.1197    2.4726    4.5991 C.2       1 <0>        -0.2171
     25 C20        -2.4747    2.7487    3.3314 C.2       1 <0>        -0.0282
     26 O2         -1.8999    3.9083    2.9727 O.3       1 <0>        -0.1727
     27 C21         4.1209    6.8607    5.2511 C.2       1 <0>         0.0678
     28 C22         3.2317    6.7292    6.2518 C.2       1 <0>        -0.1928
     29 C23         3.5952    5.5687    6.9730 C.2       1 <0>        -0.1955
     30 C24         4.6848    5.0605    6.3698 C.2       1 <0>        -0.0682
     31 O3          4.9953    5.8439    5.3240 O.3       1 <0>        -0.1756
     32 O4          5.2222    8.1146    6.6652 O.2       1 <0>        -0.5497
     33 H2          2.1836   10.6280   -0.7139 H         1 <0>         0.1303
     34 H3          0.9610    8.5588   -0.1845 H         1 <0>         0.1273
     35 H4          1.8364    7.0120    1.5151 H         1 <0>         0.1239
     36 H5          4.2895   11.1481    0.4196 H         1 <0>         0.1317
     37 H6          7.2812   11.1798    3.0049 H         1 <0>         0.0933
     38 H7          8.0642    9.6681    3.5778 H         1 <0>         0.1064
     39 H8          8.0763   11.4147    5.3509 H         1 <0>         0.0885
     40 H9          6.2852   11.5182    5.2607 H         1 <0>         0.0751
     41 H10         7.9395    9.0309    5.9943 H         1 <0>         0.0982
     42 H11         6.9344   10.0096    7.1161 H         1 <0>         0.0948
     43 H12         3.2475    5.6602    1.9544 H         1 <0>         0.1115
     44 H13         3.7755    5.3988    3.6514 H         1 <0>         0.1241
     45 H14         1.2771    4.3609    3.2473 H         1 <0>         0.4253
     46 H15        -0.3354    6.0726    5.0117 H         1 <0>         0.0986
     47 H16        -0.8503    6.3889    3.3201 H         1 <0>         0.0830
     48 H17        -0.8069    3.6193    5.9945 H         1 <0>         0.1508
     49 H18        -2.4202    1.6123    5.1788 H         1 <0>         0.1512
     50 H19        -3.1168    2.1430    2.7092 H         1 <0>         0.2054
     51 H20         2.3993    7.3841    6.4633 H         1 <0>         0.1278
     52 H21         3.0940    5.1672    7.8413 H         1 <0>         0.1343
     53 H22         5.2167    4.1705    6.6721 H         1 <0>         0.1906
     54 H23         6.0844   10.0870    1.4189 H         1 <0>         0.4296
@<TRIPOS>BOND
     1    1    6 ar
     2    1    2 ar
     3    1   33 1
     4    2    3 ar
     5    2   34 1
     6    3    4 ar
     7    3   35 1
     8    4   16 1
     9    4    5 ar
    10    5    6 ar
    11    5    7 1
    12    6   36 1
    13    7    8 1
    14    7   54 1
    15    8   13 2
    16    8    9 1
    17    9   10 1
    18    9   37 1
    19    9   38 1
    20   10   11 1
    21   10   39 1
    22   10   40 1
    23   11   41 1
    24   11   42 1
    25   11   12 1
    26   12   32 2
    27   12   13 1
    28   13   14 1
    29   14   15 1
    30   14   16 1
    31   14   27 1
    32   16   17 1
    33   17   18 1
    34   17   43 1
    35   17   44 1
    36   18   19 2
    37   18   20 am
    38   20   21 1
    39   20   45 1
    40   21   22 1
    41   21   46 1
    42   21   47 1
    43   22   26 1
    44   22   23 2
    45   23   24 1
    46   23   48 1
    47   24   25 2
    48   24   49 1
    49   25   26 1
    50   25   50 1
    51   27   31 1
    52   27   28 2
    53   28   29 1
    54   28   51 1
    55   29   30 2
    56   29   52 1
    57   30   31 1
    58   30   53 1
@<TRIPOS>MOLECULE
ZINC35934288
   57    60     0     0     0
SMALL
USER_CHARGES

@<TRIPOS>ATOM
      1 C1         -0.0184    1.5028    0.0103 C.3       1 <0>        -0.1165
      2 C2          0.0021   -0.0041    0.0020 C.ar      1 <0>        -0.0801
      3 C3          0.0057   -0.6887   -1.1989 C.ar      1 <0>        -0.1202
      4 C4          0.0245   -2.0709   -1.2065 C.ar      1 <0>        -0.0791
      5 C5          0.0400   -2.7685   -0.0132 C.ar      1 <0>        -0.1118
      6 C6          0.0373   -2.0839    1.1877 C.ar      1 <0>        -0.0956
      7 C7          0.0229   -0.7016    1.1953 C.ar      1 <0>        -0.1246
      8 C8          0.0595   -4.2753   -0.0215 C.3       1 <0>         0.2548
      9 H1         -0.2966   -4.6077   -0.9966 H         1 <0>         0.0917
     10 C9          1.4988   -4.7249    0.1285 C.2       1 <0>        -0.2720
     11 C10         1.8015   -5.5199    1.1748 C.2       1 <0>         0.1734
     12 C11         3.2826   -5.8082    1.0758 C.3       1 <0>         0.1463
     13 N1          3.7287   -5.0866   -0.1253 N.am      1 <0>        -0.6069
     14 C12         2.6510   -4.4699   -0.6430 C.2       1 <0>         0.5878
     15 O1          2.6683   -3.7815   -1.6470 O.2       1 <0>        -0.5190
     16 C13         5.0925   -5.0468   -0.6588 C.3       1 <0>         0.1263
     17 C14         5.2840   -6.1802   -1.6334 C.2       1 <0>         0.4917
     18 O2          4.3711   -6.9458   -1.8601 O.2       1 <0>        -0.5236
     19 N2          6.4697   -6.3430   -2.2532 N.am      1 <0>        -0.7308
     20 C15         6.6558   -7.4448   -3.2006 C.3       1 <0>         0.1255
     21 C16         8.0801   -7.4032   -3.7578 C.3       1 <0>        -0.0908
     22 C17         8.2715   -8.5366   -4.7324 C.ar      1 <0>        -0.0858
     23 C18         8.7240   -9.7638   -4.2851 C.ar      1 <0>        -0.1141
     24 C19         8.8997  -10.8035   -5.1791 C.ar      1 <0>        -0.1183
     25 C20         8.6223  -10.6160   -6.5203 C.ar      1 <0>        -0.1201
     26 C21         8.1689   -9.3891   -6.9674 C.ar      1 <0>        -0.1177
     27 C22         7.9893   -8.3507   -6.0728 C.ar      1 <0>        -0.1135
     28 N3          0.8450   -5.9071    2.0696 N.am      1 <0>        -0.5280
     29 C23        -0.4403   -5.5400    1.9853 C.2       1 <0>         0.7111
     30 O3         -1.2212   -5.9344    2.8293 O.2       1 <0>        -0.5579
     31 N4         -0.8952   -4.7474    0.9956 N.am      1 <0>        -0.7097
     32 C24         1.2468   -6.7716    3.1819 C.3       1 <0>         0.0721
     33 H2          1.0042    1.8801    0.0026 H         1 <0>         0.0707
     34 H3         -0.5455    1.8639   -0.8728 H         1 <0>         0.0671
     35 H4         -0.5286    1.8543    0.9071 H         1 <0>         0.0659
     36 H5         -0.0064   -0.1436   -2.1312 H         1 <0>         0.1230
     37 H6          0.0266   -2.6057   -2.1448 H         1 <0>         0.1256
     38 H7          0.0491   -2.6289    2.1200 H         1 <0>         0.1122
     39 H8          0.0245   -0.1667    2.1335 H         1 <0>         0.1202
     40 H9          3.8017   -5.4333    1.9579 H         1 <0>         0.1130
     41 H10         3.4537   -6.8785    0.9605 H         1 <0>         0.1130
     42 H11         5.2555   -4.0975   -1.1690 H         1 <0>         0.1213
     43 H12         5.8058   -5.1468    0.1593 H         1 <0>         0.1161
     44 H13         7.1998   -5.7307   -2.0719 H         1 <0>         0.4024
     45 H14         6.4928   -8.3942   -2.6904 H         1 <0>         0.0702
     46 H15         5.9425   -7.3449   -4.0188 H         1 <0>         0.0704
     47 H16         8.2431   -6.4539   -4.2680 H         1 <0>         0.0809
     48 H17         8.7934   -7.5032   -2.9396 H         1 <0>         0.0805
     49 H18         8.9407   -9.9103   -3.2372 H         1 <0>         0.1219
     50 H19         9.2539  -11.7621   -4.8297 H         1 <0>         0.1231
     51 H20         8.7602  -11.4281   -7.2188 H         1 <0>         0.1225
     52 H21         7.9526   -9.2426   -8.0154 H         1 <0>         0.1233
     53 H22         7.6315   -7.3932   -6.4216 H         1 <0>         0.1225
     54 H23        -1.8304   -4.4932    0.9544 H         1 <0>         0.4353
     55 H24         1.5462   -6.1564    4.0304 H         1 <0>         0.0741
     56 H25         0.4084   -7.4055    3.4707 H         1 <0>         0.0973
     57 H26         2.0848   -7.3962    2.8724 H         1 <0>         0.0834
@<TRIPOS>BOND
     1    1    2 1
     2    1   33 1
     3    1   34 1
     4    1   35 1
     5    2    7 ar
     6    2    3 ar
     7    3    4 ar
     8    3   36 1
     9    4    5 ar
    10    4   37 1
    11    5    6 ar
    12    5    8 1
    13    6    7 ar
    14    6   38 1
    15    7   39 1
    16    8    9 1
    17    8   31 1
    18    8   10 1
    19   10   14 1
    20   10   11 2
    21   11   12 1
    22   11   28 1
    23   12   13 1
    24   12   40 1
    25   12   41 1
    26   13   14 am
    27   13   16 1
    28   14   15 2
    29   16   17 1
    30   16   42 1
    31   16   43 1
    32   17   18 2
    33   17   19 am
    34   19   20 1
    35   19   44 1
    36   20   21 1
    37   20   45 1
    38   20   46 1
    39   21   22 1
    40   21   47 1
    41   21   48 1
    42   22   27 ar
    43   22   23 ar
    44   23   24 ar
    45   23   49 1
    46   24   25 ar
    47   24   50 1
    48   25   26 ar
    49   25   51 1
    50   26   27 ar
    51   26   52 1
    52   27   53 1
    53   28   29 am
    54   28   32 1
    55   29   30 2
    56   29   31 am
    57   31   54 1
    58   32   55 1
    59   32   56 1
    60   32   57 1
@<TRIPOS>MOLECULE
ZINC04144233
   52    55     0     0     0
SMALL
USER_CHARGES

@<TRIPOS>ATOM
      1 C1         -0.9335    1.7287    0.0451 C.3       1 <0>        -0.1241
      2 C2         -0.7345    0.2385    0.1485 C.2       1 <0>         0.2608
      3 C3         -1.8061   -0.5808    0.0848 C.2       1 <0>        -0.2915
      4 C4         -1.5611   -2.0722    0.1929 C.3       1 <0>         0.2715
      5 H1         -2.1336   -2.4461    1.0417 H         1 <0>         0.0947
      6 N1         -0.1645   -2.5085    0.3597 N.am      1 <0>        -0.7065
      7 C5          0.8001   -1.5684    0.4057 C.2       1 <0>         0.7046
      8 O1          1.9560   -1.9183    0.5432 O.2       1 <0>        -0.5582
      9 N2          0.5272   -0.2618    0.2995 N.am      1 <0>        -0.6441
     10 C6         -2.1050   -2.7238   -1.0524 C.2       1 <0>        -0.2174
     11 C7         -2.3463   -2.1094   -2.2303 C.2       1 <0>         0.0926
     12 N3         -2.8292   -3.0394   -3.0954 N.pl3     1 <0>        -0.3112
     13 N4         -2.8862   -4.2679   -2.4248 N.2       1 <0>        -0.2571
     14 C8         -2.4463   -4.0850   -1.1957 C.2       1 <0>         0.1743
     15 C9         -2.3334   -5.1240   -0.1497 C.2       1 <0>        -0.0899
     16 C10        -3.2019   -6.1365    0.1578 C.2       1 <0>        -0.1150
     17 C11        -2.8810   -6.9946    1.1874 C.2       1 <0>        -0.1565
     18 C12        -1.7181   -6.8111    1.8631 C.2       1 <0>        -0.1550
     19 S1         -1.0250   -5.3891    1.0359 S.3       1 <0>         0.0535
     20 C13        -3.2051   -2.8096   -4.4251 C.ar      1 <0>         0.1588
     21 C14        -3.0927   -1.5372   -4.9700 C.ar      1 <0>        -0.1393
     22 C15        -3.4637   -1.3140   -6.2814 C.ar      1 <0>        -0.0908
     23 C16        -3.9471   -2.3558   -7.0517 C.ar      1 <0>        -0.1263
     24 C17        -4.0602   -3.6240   -6.5121 C.ar      1 <0>        -0.0938
     25 C18        -3.6855   -3.8549   -5.2030 C.ar      1 <0>        -0.1177
     26 C19        -3.1130   -0.0642   -0.0769 C.2       1 <0>         0.5329
     27 O2         -3.2951    1.1388   -0.0843 O.2       1 <0>        -0.5160
     28 O3         -4.1578   -0.9057   -0.2230 O.3       1 <0>        -0.3354
     29 C20        -5.4614   -0.3213   -0.2589 C.3       1 <0>         0.0840
     30 C21        -5.8225    0.0315   -1.7032 C.3       1 <0>        -0.1687
     31 C22        -6.4825   -1.3179    0.2933 C.3       1 <0>        -0.1493
     32 H2          0.0323    2.2297    0.1109 H         1 <0>         0.0717
     33 H3         -1.4023    1.9673   -0.9095 H         1 <0>         0.1047
     34 H4         -1.5745    2.0670    0.8593 H         1 <0>         0.1105
     35 H5          0.0559   -3.4501    0.4350 H         1 <0>         0.4245
     36 H6          1.2667    0.3648    0.3361 H         1 <0>         0.4310
     37 H7         -2.1843   -1.0637   -2.4466 H         1 <0>         0.1728
     38 H8         -4.1211   -6.2602   -0.3955 H         1 <0>         0.1391
     39 H9         -3.5465   -7.8026    1.4534 H         1 <0>         0.1416
     40 H10        -1.3142   -7.3813    2.6867 H         1 <0>         0.1925
     41 H11        -2.7160   -0.7230   -4.3687 H         1 <0>         0.1272
     42 H12        -3.3766   -0.3247   -6.7058 H         1 <0>         0.1342
     43 H13        -4.2372   -2.1786   -8.0768 H         1 <0>         0.1305
     44 H14        -4.4383   -4.4355   -7.1161 H         1 <0>         0.1337
     45 H15        -3.7699   -4.8465   -4.7834 H         1 <0>         0.1383
     46 H16        -5.4709    0.5833    0.3493 H         1 <0>         0.0826
     47 H17        -6.7798    0.5523   -1.7215 H         1 <0>         0.0724
     48 H18        -5.0503    0.6756   -2.1239 H         1 <0>         0.0609
     49 H19        -5.8946   -0.8822   -2.2932 H         1 <0>         0.0609
     50 H20        -6.2750   -1.5045    1.3469 H         1 <0>         0.0641
     51 H21        -7.4861   -0.9058    0.1880 H         1 <0>         0.0772
     52 H22        -6.4139   -2.2535   -0.2618 H         1 <0>         0.0656
@<TRIPOS>BOND
     1    1    2 1
     2    1   32 1
     3    1   33 1
     4    1   34 1
     5    2    9 1
     6    2    3 2
     7    3    4 1
     8    3   26 1
     9    4    5 1
    10    4    6 1
    11    4   10 1
    12    6    7 am
    13    6   35 1
    14    7    8 2
    15    7    9 am
    16    9   36 1
    17   10   14 1
    18   10   11 2
    19   11   12 1
    20   11   37 1
    21   12   13 1
    22   12   20 1
    23   13   14 2
    24   14   15 1
    25   15   19 1
    26   15   16 2
    27   16   17 1
    28   16   38 1
    29   17   18 2
    30   17   39 1
    31   18   19 1
    32   18   40 1
    33   20   25 ar
    34   20   21 ar
    35   21   22 ar
    36   21   41 1
    37   22   23 ar
    38   22   42 1
    39   23   24 ar
    40   23   43 1
    41   24   25 ar
    42   24   44 1
    43   25   45 1
    44   26   27 2
    45   26   28 1
    46   28   29 1
    47   29   30 1
    48   29   31 1
    49   29   46 1
    50   30   47 1
    51   30   48 1
    52   30   49 1
    53   31   50 1
    54   31   51 1
    55   31   52 1
@<TRIPOS>MOLECULE
ZINC64702759
   53    56     0     0     0
SMALL
USER_CHARGES

@<TRIPOS>ATOM
      1 C1          0.0188    1.5275   -0.0690 C.3       1 <0>        -0.1479
      2 C2          0.0362   -0.0024   -0.0705 C.3       1 <0>        -0.0901
      3 C3          0.7562   -0.4977    1.1572 C.ar      1 <0>        -0.0669
      4 C4          2.1231   -0.7064    1.1170 C.ar      1 <0>        -0.1169
      5 C5          2.7880   -1.1595    2.2380 C.ar      1 <0>        -0.0950
      6 C6          2.0792   -1.4070    3.4131 C.ar      1 <0>        -0.0516
      7 C7          0.7014   -1.1948    3.4475 C.ar      1 <0>        -0.0865
      8 C8          0.0484   -0.7365    2.3216 C.ar      1 <0>        -0.1157
      9 C9          2.7869   -1.8939    4.6198 C.2       1 <0>         0.2069
     10 C10         2.2041   -2.1721    5.8094 C.2       1 <0>        -0.2264
     11 C11         3.3452   -2.6070    6.6886 C.3       1 <0>         0.0015
     12 H1          3.7634   -1.7637    7.2382 H         1 <0>         0.1031
     13 C12         3.0839   -3.7688    7.5978 C.2       1 <0>         0.4646
     14 O1          1.9883   -3.9836    8.0596 O.2       1 <0>        -0.3771
     15 N1          4.1469   -4.5671    7.8735 N.2       1 <0>        -0.1989
     16 N2          5.2507   -4.4462    7.3367 N.2       1 <0>        -0.0201
     17 C13         5.5423   -3.4432    6.2967 C.3       1 <0>         0.1113
     18 H2          5.9595   -2.5453    6.7526 H         1 <0>         0.1429
     19 N3          4.2971   -3.1092    5.6454 N.3       1 <0>        -0.2988
     20 N4          4.1768   -2.1465    4.7067 N.pl3     1 <0>        -0.5971
     21 S1          6.7128   -4.1250    5.0902 S.3       1 <0>        -0.0406
     22 C14         5.8529   -5.5720    4.4139 C.3       1 <0>        -0.1434
     23 C15         6.7276   -6.2406    3.3848 C.2       1 <0>         0.5350
     24 O2          7.8232   -5.7857    3.1325 O.2       1 <0>        -0.4970
     25 N5          6.2923   -7.3439    2.7448 N.am      1 <0>        -0.6626
     26 C16         7.0527   -7.8977    1.7090 C.ar      1 <0>         0.1440
     27 C17         7.9361   -7.1013    0.9917 C.ar      1 <0>        -0.1263
     28 C18         8.6851   -7.6508   -0.0301 C.ar      1 <0>        -0.1042
     29 C19         8.5560   -8.9925   -0.3397 C.ar      1 <0>        -0.1313
     30 C20         7.6771   -9.7879    0.3721 C.ar      1 <0>        -0.1002
     31 C21         6.9299   -9.2457    1.3996 C.ar      1 <0>        -0.1143
     32 C22         5.9776  -10.1149    2.1798 C.3       1 <0>        -0.1172
     33 H3          1.0423    1.9025   -0.0720 H         1 <0>         0.0561
     34 H4         -0.5019    1.8858   -0.9570 H         1 <0>         0.0605
     35 H5         -0.4962    1.8842    0.8229 H         1 <0>         0.0568
     36 H6         -0.9873   -0.3773   -0.0676 H         1 <0>         0.0747
     37 H7          0.5512   -0.3590   -0.9625 H         1 <0>         0.0741
     38 H8          2.6710   -0.5147    0.2062 H         1 <0>         0.1262
     39 H9          3.8552   -1.3224    2.2053 H         1 <0>         0.1220
     40 H10         0.1472   -1.3848    4.3548 H         1 <0>         0.1301
     41 H11        -1.0180   -0.5679    2.3482 H         1 <0>         0.1287
     42 H12         1.1583   -2.0983    6.0686 H         1 <0>         0.1657
     43 H13         4.8886   -1.7206    4.2038 H         1 <0>         0.4318
     44 H14         5.6363   -6.2748    5.2184 H         1 <0>         0.1218
     45 H15         4.9202   -5.2551    3.9473 H         1 <0>         0.1244
     46 H16         5.4519   -7.7542    3.0024 H         1 <0>         0.4133
     47 H17         8.0369   -6.0534    1.2326 H         1 <0>         0.1444
     48 H18         9.3722   -7.0321   -0.5882 H         1 <0>         0.1261
     49 H19         9.1426   -9.4198   -1.1395 H         1 <0>         0.1243
     50 H20         7.5783  -10.8352    0.1276 H         1 <0>         0.1270
     51 H21         4.9989  -10.1030    1.7001 H         1 <0>         0.0722
     52 H22         6.3568  -11.1365    2.2063 H         1 <0>         0.0743
     53 H23         5.8883   -9.7339    3.1971 H         1 <0>         0.0624
@<TRIPOS>BOND
     1    1    2 1
     2    1   33 1
     3    1   34 1
     4    1   35 1
     5    2    3 1
     6    2   36 1
     7    2   37 1
     8    3    8 ar
     9    3    4 ar
    10    4    5 ar
    11    4   38 1
    12    5    6 ar
    13    5   39 1
    14    6    7 ar
    15    6    9 1
    16    7    8 ar
    17    7   40 1
    18    8   41 1
    19    9   20 1
    20    9   10 2
    21   10   11 1
    22   10   42 1
    23   11   12 1
    24   11   19 1
    25   11   13 1
    26   13   14 2
    27   13   15 1
    28   15   16 2
    29   16   17 1
    30   17   18 1
    31   17   19 1
    32   17   21 1
    33   19   20 1
    34   20   43 1
    35   21   22 1
    36   22   23 1
    37   22   44 1
    38   22   45 1
    39   23   24 2
    40   23   25 am
    41   25   26 1
    42   25   46 1
    43   26   31 ar
    44   26   27 ar
    45   27   28 ar
    46   27   47 1
    47   28   29 ar
    48   28   48 1
    49   29   30 ar
    50   29   49 1
    51   30   31 ar
    52   30   50 1
    53   31   32 1
    54   32   51 1
    55   32   52 1
    56   32   53 1
@<TRIPOS>MOLECULE
ZINC03610276
   48    50     0     0     0
SMALL
USER_CHARGES
2-(1,3-dioxo-2,4-diazaspiro[4.6]undec-2-yl)-N-[4-(trifluoromethoxy)phenyl]-acetamide
@<TRIPOS>ATOM
      1 C1          2.1339    1.4037    0.7450 C.ar      1 <0>        -0.0826
      2 C2          2.1506    0.0229    0.7435 C.ar      1 <0>        -0.1009
      3 C3          1.2103   -0.6817    0.0060 C.ar      1 <0>         0.0912
      4 C4          0.2530    0.0003   -0.7307 C.ar      1 <0>        -0.1692
      5 C5          0.2354    1.3810   -0.7305 C.ar      1 <0>        -0.1008
      6 C6          1.1759    2.0868    0.0078 C.ar      1 <0>         0.1308
      7 N1          1.1581    3.4878    0.0093 N.am      1 <0>        -0.6675
      8 C7          2.3129    4.1764    0.1037 C.2       1 <0>         0.5026
      9 O1          3.3730    3.5872    0.0910 O.2       1 <0>        -0.5039
     10 C8          2.2869    5.6783    0.2250 C.3       1 <0>         0.1010
     11 N2          3.6587    6.1850    0.3118 N.am      1 <0>        -0.5627
     12 C9          4.4038    6.5369   -0.7533 C.2       1 <0>         0.5346
     13 O2          4.0777    6.4925   -1.9201 O.2       1 <0>        -0.4571
     14 C10         5.7370    7.0004   -0.1919 C.3       1 <0>         0.1410
     15 C11         5.8735    8.5124   -0.4804 C.3       1 <0>        -0.1137
     16 C12         6.8255    9.1114    0.5170 C.3       1 <0>        -0.1201
     17 C13         8.2740    9.1726   -0.0064 C.3       1 <0>        -0.1199
     18 C14         8.6911    7.8961   -0.7609 C.3       1 <0>        -0.1254
     19 C15         8.2046    6.6449   -0.0802 C.3       1 <0>        -0.1089
     20 C16         6.8619    6.2355   -0.7148 C.3       1 <0>        -0.1227
     21 N3          5.5665    6.8333    1.2659 N.am      1 <0>        -0.7154
     22 C17         4.3233    6.3604    1.4590 C.2       1 <0>         0.7089
     23 O3          3.8563    6.1162    2.5542 O.2       1 <0>        -0.5394
     24 O4          1.2273   -2.0412    0.0050 O.3       1 <0>        -0.3091
     25 C18         0.2299   -2.7019   -0.7765 C.3       1 <0>         0.6038
     26 F1          0.3611   -2.3233   -2.1168 F         1 <0>        -0.1646
     27 F2          0.3920   -4.0870   -0.6651 F         1 <0>        -0.1299
     28 F3         -1.0400   -2.3423   -0.3124 F         1 <0>        -0.1648
     29 H1          2.8630    1.9520    1.3230 H         1 <0>         0.1483
     30 H2          2.8956   -0.5086    1.3169 H         1 <0>         0.1444
     31 H3         -0.4786   -0.5488   -1.3050 H         1 <0>         0.1391
     32 H4         -0.5098    1.9118   -1.3044 H         1 <0>         0.1392
     33 H5          0.3147    3.9622   -0.0577 H         1 <0>         0.4160
     34 H6          1.7966    6.1050   -0.6500 H         1 <0>         0.1310
     35 H7          1.7377    5.9608    1.1232 H         1 <0>         0.1353
     36 H8          6.2611    8.6584   -1.4887 H         1 <0>         0.0924
     37 H9          4.8988    8.9914   -0.3885 H         1 <0>         0.0728
     38 H10         6.8050    8.5118    1.4271 H         1 <0>         0.0640
     39 H11         6.4946   10.1220    0.7563 H         1 <0>         0.0711
     40 H12         8.9472    9.3173    0.8386 H         1 <0>         0.0638
     41 H13         8.3672   10.0250   -0.6794 H         1 <0>         0.0639
     42 H14         9.7787    7.8632   -0.8253 H         1 <0>         0.0656
     43 H15         8.2788    7.9327   -1.7693 H         1 <0>         0.0656
     44 H16         8.0637    6.8375    0.9833 H         1 <0>         0.0662
     45 H17         8.9324    5.8446   -0.2143 H         1 <0>         0.0759
     46 H18         6.6887    5.1771   -0.5202 H         1 <0>         0.0765
     47 H19         6.9219    6.3896   -1.7922 H         1 <0>         0.0934
     48 H20         6.2236    7.0303    1.9516 H         1 <0>         0.4406
@<TRIPOS>BOND
     1    1    6 ar
     2    1    2 ar
     3    1   29 1
     4    2    3 ar
     5    2   30 1
     6    3    4 ar
     7    3   24 1
     8    4    5 ar
     9    4   31 1
    10    5    6 ar
    11    5   32 1
    12    6    7 1
    13    7    8 am
    14    7   33 1
    15    8    9 2
    16    8   10 1
    17   10   11 1
    18   10   34 1
    19   10   35 1
    20   11   22 am
    21   11   12 am
    22   12   13 2
    23   12   14 1
    24   14   20 1
    25   14   15 1
    26   14   21 1
    27   15   16 1
    28   15   36 1
    29   15   37 1
    30   16   17 1
    31   16   38 1
    32   16   39 1
    33   17   18 1
    34   17   40 1
    35   17   41 1
    36   18   19 1
    37   18   42 1
    38   18   43 1
    39   19   20 1
    40   19   44 1
    41   19   45 1
    42   20   46 1
    43   20   47 1
    44   21   22 am
    45   21   48 1
    46   22   23 2
    47   24   25 1
    48   25   26 1
    49   25   27 1
    50   25   28 1
@<TRIPOS>MOLECULE
ZINC32776530
   48    50     0     0     0
SMALL
USER_CHARGES
(6-chloro-7-ethyl-2-oxo-chromen-4-yl)methyl (3S)-1-carbamoylpiperidine-3-carboxylate
@<TRIPOS>ATOM
      1 C1          0.5233   14.5149   -1.3448 C.3       1 <0>        -0.1521
      2 C2          0.6751   14.1400    0.1307 C.3       1 <0>        -0.0963
      3 C3          0.5472   12.6464    0.2853 C.ar      1 <0>        -0.0135
      4 C4          1.6820   11.8747    0.4231 C.ar      1 <0>        -0.1183
      5 C5          1.5719   10.4973    0.5606 C.ar      1 <0>         0.1606
      6 C6          0.2978    9.9029    0.5691 C.ar      1 <0>        -0.1410
      7 C7         -0.8449   10.6981    0.4402 C.ar      1 <0>        -0.0486
      8 C8         -0.7123   12.0623    0.2992 C.ar      1 <0>        -0.0556
      9 Cl1        -2.1269   13.0556    0.1387 Cl        1 <0>        -0.0451
     10 C9          0.1926    8.4484    0.7209 C.2       1 <0>         0.0154
     11 C10         1.3391    7.7315    0.8358 C.2       1 <0>        -0.2173
     12 C11         2.5858    8.3936    0.8127 C.2       1 <0>         0.5093
     13 O1          3.6073    7.7389    0.9167 O.2       1 <0>        -0.4503
     14 O2          2.6739    9.7259    0.6795 O.3       1 <0>        -0.2672
     15 C12        -1.1516    7.7674    0.7424 C.3       1 <0>         0.0969
     16 O3         -0.9664    6.3355    0.8961 O.3       1 <0>        -0.3528
     17 C13        -2.0741    5.5784    0.9340 C.2       1 <0>         0.4718
     18 O4         -3.1624    6.0950    0.8418 O.2       1 <0>        -0.4904
     19 C14        -1.9603    4.0840    1.0916 C.3       1 <0>        -0.0943
     20 H1         -1.4445    3.8698    2.0393 H         1 <0>         0.1190
     21 C15        -3.3594    3.4638    1.1050 C.3       1 <0>        -0.1063
     22 C16        -3.2462    1.9498    1.2979 C.3       1 <0>        -0.1359
     23 C17        -2.4614    1.3473    0.1284 C.3       1 <0>         0.1216
     24 N1         -1.1702    2.0397    0.0187 N.am      1 <0>        -0.6282
     25 C18        -1.1606    3.5060   -0.0746 C.3       1 <0>         0.1234
     26 C19        -0.0162    1.3436    0.0094 C.2       1 <0>         0.7124
     27 O5         -0.0396    0.1279   -0.0000 O.2       1 <0>        -0.5934
     28 N2          1.1638    1.9948    0.0163 N.am      1 <0>        -0.8911
     29 H2          0.6167   15.6051   -1.4576 H         1 <0>         0.0680
     30 H3         -0.4646   14.1922   -1.7053 H         1 <0>         0.0619
     31 H4          1.3087   14.0169   -1.9323 H         1 <0>         0.0595
     32 H5          1.6630   14.4627    0.4912 H         1 <0>         0.0859
     33 H6         -0.1102   14.6380    0.7183 H         1 <0>         0.0891
     34 H7          2.6565   12.3402    0.4112 H         1 <0>         0.1566
     35 H8         -1.8256   10.2459    0.4515 H         1 <0>         0.1498
     36 H9          1.2980    6.6578    0.9449 H         1 <0>         0.1752
     37 H10        -1.7445    8.1529    1.5849 H         1 <0>         0.1063
     38 H11        -1.6802    7.9696   -0.2008 H         1 <0>         0.1066
     39 H12        -3.9439    3.8954    1.9309 H         1 <0>         0.0801
     40 H13        -3.8631    3.6746    0.1501 H         1 <0>         0.0786
     41 H14        -2.7212    1.7386    2.2412 H         1 <0>         0.0716
     42 H15        -4.2531    1.5082    1.3319 H         1 <0>         0.0879
     43 H16        -2.2954    0.2755    0.3117 H         1 <0>         0.1000
     44 H17        -3.0337    1.4758   -0.8022 H         1 <0>         0.0694
     45 H18        -1.6181    3.8202   -1.0243 H         1 <0>         0.0785
     46 H19        -0.1250    3.8739   -0.0271 H         1 <0>         0.0920
     47 H20         2.1056    1.4266    0.0087 H         1 <0>         0.4390
     48 H21         1.1850    3.0945    0.0295 H         1 <0>         0.4112
@<TRIPOS>BOND
     1    1    2 1
     2    1   29 1
     3    1   30 1
     4    1   31 1
     5    2    3 1
     6    2   32 1
     7    2   33 1
     8    3    8 ar
     9    3    4 ar
    10    4    5 ar
    11    4   34 1
    12    5   14 1
    13    5    6 ar
    14    6    7 ar
    15    6   10 1
    16    7    8 ar
    17    7   35 1
    18    8    9 1
    19   10   11 2
    20   10   15 1
    21   11   12 1
    22   11   36 1
    23   12   13 2
    24   12   14 1
    25   15   16 1
    26   15   37 1
    27   15   38 1
    28   16   17 1
    29   17   18 2
    30   17   19 1
    31   19   20 1
    32   19   25 1
    33   19   21 1
    34   21   22 1
    35   21   39 1
    36   21   40 1
    37   22   23 1
    38   22   41 1
    39   22   42 1
    40   23   24 1
    41   23   43 1
    42   23   44 1
    43   24   25 1
    44   24   26 am
    45   25   45 1
    46   25   46 1
    47   26   27 2
    48   26   28 am
    49   28   47 1
    50   28   48 1
@<TRIPOS>MOLECULE
ZINC13246675
   47    49     0     0     0
SMALL
USER_CHARGES

@<TRIPOS>ATOM
      1 C1         -0.0184    1.5028    0.0103 C.3       1 <0>        -0.1103
      2 C2          0.0021   -0.0041    0.0020 C.ar      1 <0>        -0.1250
      3 C3          0.0057   -0.6855   -1.1973 C.ar      1 <0>        -0.0184
      4 C4          0.0252   -2.0824   -1.2030 C.ar      1 <0>        -0.1495
      5 C5          0.0407   -2.7792    0.0082 C.ar      1 <0>         0.0121
      6 C6          0.0368   -2.0846    1.1995 C.ar      1 <0>        -0.6552
      7 C7          0.0229   -0.7006    1.1974 C.ar      1 <0>         0.0040
      8 C8          0.0250    0.0513    2.5034 C.3       1 <0>        -0.1339
      9 S1          0.0565   -2.9610    2.7279 S.o2      1 <0>         2.6376
     10 O1         -0.9731   -2.4002    3.5309 O.2       1 <0>        -0.9533
     11 O2          0.1012   -4.3436    2.4027 O.2       1 <0>        -0.9523
     12 N1          1.4890   -2.6047    3.4783 N.2       1 <0>        -0.9356
     13 C9          1.7652   -3.1301    4.6464 C.2       1 <0>         0.4969
     14 N2          2.8818   -2.9645    5.4369 N.pl3     1 <0>        -0.6269
     15 C10         2.9394   -3.6261    6.6285 C.2       1 <0>         0.0081
     16 C11         1.9324   -4.4124    7.0083 C.2       1 <0>        -0.1299
     17 S2          0.7917   -4.2469    5.6445 S.3       1 <0>         0.0300
     18 C12         4.1456   -3.4679    7.5180 C.3       1 <0>         0.0675
     19 N3          5.3256   -4.0299    6.8474 N.4       1 <0>        -0.3987
     20 C13         5.6948   -3.1952    5.6755 C.3       1 <0>        -0.0259
     21 C14         7.1861   -3.5470    5.4455 C.3       1 <0>        -0.1413
     22 C15         7.7309   -3.7008    6.8841 C.3       1 <0>        -0.1444
     23 C16         6.4938   -3.9917    7.7537 C.3       1 <0>        -0.0076
     24 C17         0.0287   -2.8184   -2.4817 C.2       1 <0>         0.5206
     25 O3          0.0147   -2.2057   -3.5399 O.co2     1 <0>        -0.6785
     26 O4          0.0457   -4.0412   -2.4833 O.co2     1 <0>        -0.6785
     27 H1          1.0042    1.8801    0.0026 H         1 <0>         0.0681
     28 H2         -0.5455    1.8639   -0.8728 H         1 <0>         0.0705
     29 H3         -0.5286    1.8543    0.9071 H         1 <0>         0.0665
     30 H4         -0.0067   -0.1405   -2.1296 H         1 <0>         0.1399
     31 H5          0.0554   -3.8591    0.0113 H         1 <0>         0.1488
     32 H6         -1.0020    0.2186    2.8280 H         1 <0>         0.0898
     33 H7          0.5540   -0.5316    3.2574 H         1 <0>         0.0598
     34 H8          0.5246    1.0108    2.3694 H         1 <0>         0.0809
     35 H9          1.8305   -4.9962    7.9112 H         1 <0>         0.2220
     36 H10         4.3120   -2.4098    7.7198 H         1 <0>         0.1478
     37 H11         3.9761   -3.9947    8.4571 H         1 <0>         0.1625
     38 H12         5.0968   -3.4672    4.8058 H         1 <0>         0.1361
     39 H13         5.5806   -2.1361    5.9063 H         1 <0>         0.1378
     40 H14         7.2812   -4.4829    4.8949 H         1 <0>         0.1017
     41 H15         7.6972   -2.7378    4.9239 H         1 <0>         0.1200
     42 H16         8.4336   -4.5324    6.9356 H         1 <0>         0.1069
     43 H17         8.2118   -2.7775    7.2072 H         1 <0>         0.1050
     44 H18         6.3649   -3.2007    8.4925 H         1 <0>         0.1339
     45 H19         6.6085   -4.9542    8.2524 H         1 <0>         0.1364
     46 H20         3.6104   -2.3908    5.1523 H         1 <0>         0.4207
     47 H21         5.1421   -4.9784    6.5562 H         1 <0>         0.4332
@<TRIPOS>BOND
     1    1    2 1
     2    1   27 1
     3    1   28 1
     4    1   29 1
     5    2    7 ar
     6    2    3 ar
     7    3    4 ar
     8    3   30 1
     9    4    5 ar
    10    4   24 1
    11    5    6 ar
    12    5   31 1
    13    6    7 ar
    14    6    9 1
    15    7    8 1
    16    8   32 1
    17    8   33 1
    18    8   34 1
    19    9   10 2
    20    9   11 2
    21    9   12 1
    22   12   13 2
    23   13   17 1
    24   13   14 1
    25   14   15 1
    26   14   46 1
    27   15   16 2
    28   15   18 1
    29   16   17 1
    30   16   35 1
    31   18   19 1
    32   18   36 1
    33   18   37 1
    34   19   23 1
    35   19   20 1
    36   19   47 1
    37   20   21 1
    38   20   38 1
    39   20   39 1
    40   21   22 1
    41   21   40 1
    42   21   41 1
    43   22   23 1
    44   22   42 1
    45   22   43 1
    46   23   44 1
    47   23   45 1
    48   24   25 2
    49   24   26 1
@<TRIPOS>MOLECULE
ZINC57494794
   57    59     0     0     0
SMALL
USER_CHARGES

@<TRIPOS>ATOM
      1 C1         -0.0066    1.5186    0.0194 C.3       1 <0>        -0.1580
      2 C2          0.0149   -0.0112    0.0051 C.3       1 <0>        -0.1156
      3 C3         -1.4201   -0.5416    0.0241 C.3       1 <0>        -0.0581
      4 C4         -2.1276   -0.0533    1.2897 C.3       1 <0>        -0.1477
      5 C5         -2.1691   -0.0304   -1.2083 C.3       1 <0>        -0.1506
      6 C6         -1.3986   -2.0714    0.0097 C.3       1 <0>        -0.0803
      7 C7         -0.6889   -2.5592   -1.2549 C.3       1 <0>        -0.1158
      8 C8         -0.6585   -4.0898   -1.2632 C.3       1 <0>        -0.1141
      9 C9         -2.0844   -4.6280   -1.2203 C.3       1 <0>         0.1307
     10 C10        -2.8111   -4.1321    0.0251 C.3       1 <0>        -0.1142
     11 C11        -2.8338   -2.6013    0.0287 C.3       1 <0>        -0.1151
     12 C12        -2.0800   -6.1387   -1.2624 C.2       1 <0>         0.5371
     13 O1         -1.5824   -6.8940   -0.4551 O.2       1 <0>        -0.4564
     14 N1         -2.7469   -6.4697   -2.3876 N.am      1 <0>        -0.5646
     15 C13        -3.1648   -5.3843   -3.0503 C.2       1 <0>         0.7087
     16 O2         -3.7883   -5.4272   -4.0927 O.2       1 <0>        -0.5388
     17 N2         -2.8173   -4.2394   -2.4321 N.am      1 <0>        -0.7112
     18 C14        -2.9836   -7.8462   -2.8296 C.3       1 <0>         0.1012
     19 C15        -4.2836   -8.3430   -2.2515 C.2       1 <0>         0.5033
     20 O3         -4.9470   -7.6185   -1.5402 O.2       1 <0>        -0.5006
     21 N3         -4.7089   -9.5923   -2.5249 N.am      1 <0>        -0.6692
     22 C16        -5.8621  -10.0861   -1.9137 C.ar      1 <0>         0.1741
     23 C17        -6.9315   -9.2338   -1.6587 C.ar      1 <0>        -0.1226
     24 C18        -8.0708   -9.7174   -1.0554 C.ar      1 <0>        -0.0491
     25 C19        -8.1523  -11.0666   -0.6996 C.ar      1 <0>        -0.0437
     26 C20        -7.0760  -11.9202   -0.9578 C.ar      1 <0>        -0.0490
     27 C21        -5.9418  -11.4306   -1.5662 C.ar      1 <0>        -0.1437
     28 C22        -9.3354  -11.5731   -0.0716 C.1       1 <0>         0.2527
     29 N4        -10.2739  -11.9749    0.4266 N.1       1 <0>        -0.4146
     30 H1          1.0158    1.8964    0.0059 H         1 <0>         0.0513
     31 H2         -0.5401    1.8827   -0.8585 H         1 <0>         0.0566
     32 H3         -0.5106    1.8664    0.9211 H         1 <0>         0.0566
     33 H4          0.5189   -0.3590   -0.8966 H         1 <0>         0.0641
     34 H5          0.5485   -0.3753    0.8830 H         1 <0>         0.0612
     35 H6         -2.1429    1.0365    1.3000 H         1 <0>         0.0583
     36 H7         -3.1499   -0.4312    1.3033 H         1 <0>         0.0571
     37 H8         -1.5940   -0.4175    2.1677 H         1 <0>         0.0545
     38 H9         -1.6650   -0.3783   -2.1100 H         1 <0>         0.0569
     39 H10        -3.1914   -0.4083   -1.1948 H         1 <0>         0.0567
     40 H11        -2.1844    1.0594   -1.1981 H         1 <0>         0.0582
     41 H12        -0.8656   -2.4352    0.8881 H         1 <0>         0.0766
     42 H13        -1.2254   -2.2015   -2.1337 H         1 <0>         0.0687
     43 H14         0.3311   -2.1753   -1.2703 H         1 <0>         0.0786
     44 H15        -0.1659   -4.4383   -2.1709 H         1 <0>         0.0750
     45 H16        -0.1091   -4.4468   -0.3921 H         1 <0>         0.0905
     46 H17        -3.8334   -4.5104    0.0239 H         1 <0>         0.0779
     47 H18        -2.2927   -4.4898    0.9147 H         1 <0>         0.0892
     48 H19        -3.3401   -2.2474    0.9267 H         1 <0>         0.0787
     49 H20        -3.3651   -2.2436   -0.8533 H         1 <0>         0.0684
     50 H21        -3.0122   -3.3367   -2.7288 H         1 <0>         0.4406
     51 H22        -3.0356   -7.8744   -3.9180 H         1 <0>         0.1346
     52 H23        -2.1673   -8.4828   -2.4883 H         1 <0>         0.1324
     53 H24        -4.2134  -10.1482   -3.1464 H         1 <0>         0.4178
     54 H25        -6.8678   -8.1913   -1.9339 H         1 <0>         0.1485
     55 H26        -8.9004   -9.0549   -0.8570 H         1 <0>         0.1374
     56 H27        -7.1353  -12.9632   -0.6840 H         1 <0>         0.1391
     57 H28        -5.1115  -12.0905   -1.7700 H         1 <0>         0.1394
@<TRIPOS>BOND
     1    1    2 1
     2    1   30 1
     3    1   31 1
     4    1   32 1
     5    2    3 1
     6    2   33 1
     7    2   34 1
     8    3    4 1
     9    3    5 1
    10    3    6 1
    11    4   35 1
    12    4   36 1
    13    4   37 1
    14    5   38 1
    15    5   39 1
    16    5   40 1
    17    6   11 1
    18    6    7 1
    19    6   41 1
    20    7    8 1
    21    7   42 1
    22    7   43 1
    23    8    9 1
    24    8   44 1
    25    8   45 1
    26    9   17 1
    27    9   10 1
    28    9   12 1
    29   10   11 1
    30   10   46 1
    31   10   47 1
    32   11   48 1
    33   11   49 1
    34   12   13 2
    35   12   14 am
    36   14   15 am
    37   14   18 1
    38   15   16 2
    39   15   17 am
    40   17   50 1
    41   18   19 1
    42   18   51 1
    43   18   52 1
    44   19   20 2
    45   19   21 am
    46   21   22 1
    47   21   53 1
    48   22   27 ar
    49   22   23 ar
    50   23   24 ar
    51   23   54 1
    52   24   25 ar
    53   24   55 1
    54   25   26 ar
    55   25   28 1
    56   26   27 ar
    57   26   56 1
    58   27   57 1
    59   28   29 3
@<TRIPOS>MOLECULE
ZINC64661094
   52    54     0     0     0
SMALL
USER_CHARGES

@<TRIPOS>ATOM
      1 C1         -1.3260  -11.6546    4.4754 C.3       1 <0>        -0.1136
      2 C2         -1.0403  -10.4913    3.5611 C.ar      1 <0>        -0.0961
      3 C3         -1.5438  -10.4861    2.2730 C.ar      1 <0>        -0.1087
      4 C4         -1.2838   -9.4217    1.4326 C.ar      1 <0>        -0.1128
      5 C5         -0.5161   -8.3552    1.8824 C.ar      1 <0>         0.1374
      6 C6         -0.0124   -8.3631    3.1763 C.ar      1 <0>        -0.1067
      7 C7         -0.2801   -9.4287    4.0135 C.ar      1 <0>        -0.1045
      8 C8          0.8211   -7.2081    3.6684 C.3       1 <0>        -0.1159
      9 N1         -0.2504   -7.2752    1.0332 N.am      1 <0>        -0.6698
     10 C9         -0.1004   -7.4798   -0.2904 C.2       1 <0>         0.4973
     11 O1         -0.2847   -8.5836   -0.7582 O.2       1 <0>        -0.4982
     12 C10         0.2965   -6.3371   -1.1893 C.3       1 <0>         0.0729
     13 N2          0.3927   -6.8136   -2.5713 N.am      1 <0>        -0.5438
     14 C11        -0.8167   -6.8807   -3.2842 C.ar      1 <0>         0.1617
     15 C12        -1.8914   -6.4709   -2.5142 C.ar      1 <0>        -0.1492
     16 C13        -3.1662   -6.4709   -3.0541 C.ar      1 <0>        -0.1079
     17 C14        -3.3688   -6.8786   -4.3587 C.ar      1 <0>        -0.1128
     18 C15        -2.2984   -7.2901   -5.1341 C.ar      1 <0>        -0.1358
     19 C16        -1.0209   -7.2925   -4.6003 C.ar      1 <0>         0.1472
     20 N3         -0.0673   -7.7386   -5.5299 N.pl3     1 <0>        -0.6505
     21 C17         1.2858   -7.8730   -5.3595 C.2       1 <0>         0.2456
     22 C18         2.0326   -7.6139   -4.2688 C.2       1 <0>        -0.3054
     23 C19         1.6313   -7.1280   -3.0021 C.2       1 <0>         0.5813
     24 O2          2.5247   -6.9784   -2.1890 O.2       1 <0>        -0.5346
     25 C20         2.0435   -8.3817   -6.5588 C.3       1 <0>        -0.0970
     26 C21         2.0021   -9.8880   -6.5772 C.2       1 <0>         0.4574
     27 O3          1.4173  -10.4870   -5.7059 O.2       1 <0>        -0.4851
     28 O4          2.6148  -10.5642   -7.5616 O.3       1 <0>        -0.3507
     29 C22         2.5351  -11.9903   -7.5162 C.3       1 <0>         0.0331
     30 H1         -2.2473  -11.4659    5.0264 H         1 <0>         0.0699
     31 H2         -1.4361  -12.5633    3.8837 H         1 <0>         0.0658
     32 H3         -0.5011  -11.7760    5.1776 H         1 <0>         0.0656
     33 H4         -2.1408  -11.3157    1.9239 H         1 <0>         0.1238
     34 H5         -1.6768   -9.4186    0.4267 H         1 <0>         0.1396
     35 H6          0.1080   -9.4336    5.0214 H         1 <0>         0.1254
     36 H7          0.1720   -6.4584    4.1209 H         1 <0>         0.0717
     37 H8          1.5355   -7.5655    4.4101 H         1 <0>         0.0718
     38 H9          1.3588   -6.7649    2.8302 H         1 <0>         0.0643
     39 H10        -0.1743   -6.3793    1.3972 H         1 <0>         0.4106
     40 H11        -0.4541   -5.5491   -1.1280 H         1 <0>         0.1210
     41 H12         1.2625   -5.9442   -0.8723 H         1 <0>         0.1364
     42 H13        -1.7359   -6.1521   -1.4941 H         1 <0>         0.1373
     43 H14        -4.0051   -6.1516   -2.4536 H         1 <0>         0.1298
     44 H15        -4.3654   -6.8766   -4.7747 H         1 <0>         0.1308
     45 H16        -2.4594   -7.6083   -6.1535 H         1 <0>         0.1353
     46 H17        -0.4102   -7.9831   -6.4037 H         1 <0>         0.4103
     47 H18         3.0906   -7.8009   -4.3780 H         1 <0>         0.1528
     48 H19         1.5855   -7.9945   -7.4689 H         1 <0>         0.1281
     49 H20         3.0794   -8.0473   -6.5027 H         1 <0>         0.1428
     50 H21         3.0705  -12.4114   -8.3671 H         1 <0>         0.1062
     51 H22         2.9838  -12.3501   -6.5903 H         1 <0>         0.0637
     52 H23         1.4899  -12.2972   -7.5566 H         1 <0>         0.0624
@<TRIPOS>BOND
     1    1    2 1
     2    1   30 1
     3    1   31 1
     4    1   32 1
     5    2    7 ar
     6    2    3 ar
     7    3    4 ar
     8    3   33 1
     9    4    5 ar
    10    4   34 1
    11    5    6 ar
    12    5    9 1
    13    6    7 ar
    14    6    8 1
    15    7   35 1
    16    8   36 1
    17    8   37 1
    18    8   38 1
    19    9   10 am
    20    9   39 1
    21   10   11 2
    22   10   12 1
    23   12   13 1
    24   12   40 1
    25   12   41 1
    26   13   23 am
    27   13   14 1
    28   14   19 ar
    29   14   15 ar
    30   15   16 ar
    31   15   42 1
    32   16   17 ar
    33   16   43 1
    34   17   18 ar
    35   17   44 1
    36   18   19 ar
    37   18   45 1
    38   19   20 1
    39   20   21 1
    40   20   46 1
    41   21   22 2
    42   21   25 1
    43   22   23 1
    44   22   47 1
    45   23   24 2
    46   25   26 1
    47   25   48 1
    48   25   49 1
    49   26   27 2
    50   26   28 1
    51   28   29 1
    52   29   50 1
    53   29   51 1
    54   29   52 1
@<TRIPOS>MOLECULE
ZINC04997234
   52    55     0     0     0
SMALL
USER_CHARGES
methylcarbamoylcarbamoylmethyl benzylideneBLAHcarboxylate
@<TRIPOS>ATOM
      1 C1          8.3599   -2.9010    7.5909 C.3       1 <0>         0.1016
      2 N1          8.0738   -2.8770    6.1543 N.am      1 <0>        -0.7394
      3 C2          6.9632   -2.2644    5.6985 C.2       1 <0>         0.6933
      4 O1          6.1990   -1.7319    6.4792 O.2       1 <0>        -0.5240
      5 N2          6.7001   -2.2422    4.3768 N.am      1 <0>        -0.6880
      6 C3          5.5895   -1.6296    3.9210 C.2       1 <0>         0.5180
      7 O2          4.8272   -1.0985    4.6999 O.2       1 <0>        -0.4361
      8 C4          5.2952   -1.6049    2.4432 C.3       1 <0>         0.0479
      9 O3          4.0524   -0.8914    2.2091 O.3       1 <0>        -0.3203
     10 C5          3.6436   -0.7785    0.9304 C.2       1 <0>         0.5265
     11 O4          4.3071   -1.2628    0.0357 O.2       1 <0>        -0.4796
     12 C6          2.3878   -0.0654    0.6163 C.ar      1 <0>        -0.0488
     13 C7          2.3790    1.3724    0.3460 C.ar      1 <0>        -0.0632
     14 C8          3.5532    2.1309    0.3730 C.ar      1 <0>        -0.1042
     15 C9          3.4971    3.4689    0.1141 C.ar      1 <0>        -0.0964
     16 C10         2.2838    4.0884   -0.1772 C.ar      1 <0>        -0.1013
     17 C11         1.1226    3.3797   -0.2114 C.ar      1 <0>        -0.0810
     18 C12         1.1405    1.9963    0.0507 C.ar      1 <0>         0.1387
     19 N3          0.0215    1.2769    0.0240 N.ar      1 <0>        -0.4521
     20 C13        -0.0037   -0.0298    0.2649 C.ar      1 <0>         0.1926
     21 C14         1.1732   -0.7348    0.5665 C.ar      1 <0>        -0.0828
     22 C15         0.8516   -2.1914    0.7932 C.3       1 <0>        -0.0895
     23 C16        -0.6642   -2.3326    0.6014 C.3       1 <0>        -0.0869
     24 C17        -1.1603   -0.9472    0.2702 C.2       1 <0>        -0.0870
     25 C18        -2.4365   -0.6064    0.0226 C.2       1 <0>        -0.0465
     26 C19        -3.4704   -1.6506   -0.0845 C.ar      1 <0>        -0.0638
     27 C20        -3.1784   -2.8666   -0.7086 C.ar      1 <0>        -0.1095
     28 C21        -4.1495   -3.8416   -0.7995 C.ar      1 <0>        -0.1203
     29 C22        -5.4141   -3.6137   -0.2857 C.ar      1 <0>        -0.1141
     30 C23        -5.7123   -2.4100    0.3286 C.ar      1 <0>        -0.1198
     31 C24        -4.7497   -1.4278    0.4325 C.ar      1 <0>        -0.1011
     32 H1          9.2928   -3.4366    7.7667 H         1 <0>         0.0825
     33 H2          8.4522   -1.8796    7.9601 H         1 <0>         0.0636
     34 H3          7.5475   -3.4047    8.1147 H         1 <0>         0.0636
     35 H4          8.6837   -3.3019    5.5311 H         1 <0>         0.4016
     36 H5          7.3100   -2.6672    3.7537 H         1 <0>         0.4125
     37 H6          5.2029   -2.6263    2.0740 H         1 <0>         0.1140
     38 H7          6.1076   -1.1012    1.9194 H         1 <0>         0.1133
     39 H8          4.4989    1.6603    0.5979 H         1 <0>         0.1250
     40 H9          4.4040    4.0549    0.1351 H         1 <0>         0.1346
     41 H10         2.2644    5.1492   -0.3790 H         1 <0>         0.1370
     42 H11         0.1910    3.8763   -0.4390 H         1 <0>         0.1427
     43 H12         1.1296   -2.4830    1.8060 H         1 <0>         0.0953
     44 H13         1.3800   -2.8098    0.0676 H         1 <0>         0.0942
     45 H14        -1.1289   -2.6898    1.5204 H         1 <0>         0.0948
     46 H15        -0.8782   -3.0161   -0.2204 H         1 <0>         0.0962
     47 H16        -2.7042    0.4330   -0.0980 H         1 <0>         0.1381
     48 H17        -2.1935   -3.0439   -1.1147 H         1 <0>         0.1295
     49 H18        -3.9240   -4.7836   -1.2772 H         1 <0>         0.1246
     50 H19        -6.1719   -4.3791   -0.3641 H         1 <0>         0.1229
     51 H20        -6.7014   -2.2392    0.7273 H         1 <0>         0.1248
     52 H21        -4.9840   -0.4888    0.9118 H         1 <0>         0.1263
@<TRIPOS>BOND
     1    1    2 1
     2    1   32 1
     3    1   33 1
     4    1   34 1
     5    2    3 am
     6    2   35 1
     7    3    4 2
     8    3    5 am
     9    5    6 am
    10    5   36 1
    11    6    7 2
    12    6    8 1
    13    8    9 1
    14    8   37 1
    15    8   38 1
    16    9   10 1
    17   10   11 2
    18   10   12 1
    19   12   21 ar
    20   12   13 ar
    21   13   18 ar
    22   13   14 ar
    23   14   15 ar
    24   14   39 1
    25   15   16 ar
    26   15   40 1
    27   16   17 ar
    28   16   41 1
    29   17   18 ar
    30   17   42 1
    31   18   19 ar
    32   19   20 ar
    33   20   24 1
    34   20   21 ar
    35   21   22 1
    36   22   23 1
    37   22   43 1
    38   22   44 1
    39   23   24 1
    40   23   45 1
    41   23   46 1
    42   24   25 2
    43   25   26 1
    44   25   47 1
    45   26   31 ar
    46   26   27 ar
    47   27   28 ar
    48   27   48 1
    49   28   29 ar
    50   28   49 1
    51   29   30 ar
    52   29   50 1
    53   30   31 ar
    54   30   51 1
    55   31   52 1
@<TRIPOS>MOLECULE
ZINC09876898
   57    61     0     0     0
SMALL
USER_CHARGES
N-(1-benzofuran-2-ylethyl)-2-(4-indan-5-yl-4-methyl-2,5-dioxo-imidazolidin-1-yl)-acetamide
@<TRIPOS>ATOM
      1 C1         -1.1908    5.5015   -1.3790 C.3       1 <0>        -0.1648
      2 C2         -1.1630    4.9260    0.0384 C.3       1 <0>         0.2280
      3 H1         -2.1838    4.7974    0.3984 H         1 <0>         0.1212
      4 C3         -0.4632    3.5914    0.0250 C.2       1 <0>         0.0192
      5 C4         -1.0800    2.4019    0.0194 C.2       1 <0>        -0.1836
      6 C5         -0.0168    1.3898    0.0097 C.ar      1 <0>        -0.1316
      7 C6          0.0021   -0.0041    0.0020 C.ar      1 <0>        -0.0686
      8 C7          1.1987   -0.6656   -0.0130 C.ar      1 <0>        -0.1344
      9 C8          2.3923    0.0416   -0.0211 C.ar      1 <0>        -0.0902
     10 C9          2.3933    1.4201   -0.0137 C.ar      1 <0>        -0.1072
     11 C10         1.1884    2.1118    0.0021 C.ar      1 <0>         0.0557
     12 O1          0.8705    3.4218    0.0117 O.3       1 <0>        -0.1906
     13 N1         -0.4448    5.8452    0.9247 N.am      1 <0>        -0.7226
     14 C11        -1.0962    6.8777    1.4957 C.2       1 <0>         0.5077
     15 O2         -2.2770    7.0459    1.2757 O.2       1 <0>        -0.5221
     16 C12        -0.3574    7.8232    2.4074 C.3       1 <0>         0.0994
     17 N2         -1.2798    8.8511    2.8960 N.am      1 <0>        -0.5603
     18 C13        -1.4980   10.0284    2.2774 C.2       1 <0>         0.5437
     19 O3         -0.9875   10.4217    1.2505 O.2       1 <0>        -0.4548
     20 C14        -2.5161   10.7576    3.1315 C.3       1 <0>         0.1732
     21 N3         -2.7719    9.8218    4.2401 N.am      1 <0>        -0.7148
     22 C15        -2.0054    8.7395    4.0146 C.2       1 <0>         0.7120
     23 O4         -1.9753    7.7688    4.7453 O.2       1 <0>        -0.5354
     24 C16        -3.7996   11.0194    2.3410 C.3       1 <0>        -0.1438
     25 C17        -1.9422   12.0507    3.6510 C.ar      1 <0>        -0.0992
     26 C18        -1.0585   12.7769    2.8744 C.ar      1 <0>        -0.1066
     27 C19        -0.5338   13.9615    3.3524 C.ar      1 <0>        -0.1016
     28 C20        -0.8899   14.4252    4.6080 C.ar      1 <0>        -0.0858
     29 C21        -1.7733   13.6991    5.3844 C.ar      1 <0>        -0.0956
     30 C22        -2.3028   12.5142    4.9009 C.ar      1 <0>        -0.0830
     31 C23        -2.0005   14.4098    6.7014 C.3       1 <0>        -0.0832
     32 C24        -0.8342   15.4131    6.8254 C.3       1 <0>        -0.1215
     33 C25        -0.4630   15.6735    5.3501 C.3       1 <0>        -0.0860
     34 H2         -0.1700    5.6301   -1.7389 H         1 <0>         0.0660
     35 H3         -1.7251    4.8177   -2.0384 H         1 <0>         0.0754
     36 H4         -1.6969    6.4668   -1.3693 H         1 <0>         0.0754
     37 H5         -2.1451    2.2236    0.0230 H         1 <0>         0.1615
     38 H6         -0.9244   -0.5590    0.0075 H         1 <0>         0.1290
     39 H7          1.2147   -1.7455   -0.0189 H         1 <0>         0.1314
     40 H8          3.3304   -0.4934   -0.0336 H         1 <0>         0.1370
     41 H9          3.3281    1.9609   -0.0197 H         1 <0>         0.1334
     42 H10         0.4996    5.7107    1.1006 H         1 <0>         0.4093
     43 H11         0.0498    7.2688    3.2529 H         1 <0>         0.1318
     44 H12         0.4561    8.2967    1.8577 H         1 <0>         0.1300
     45 H13        -3.3757    9.9590    4.9867 H         1 <0>         0.4411
     46 H14        -4.5473   11.4629    2.9986 H         1 <0>         0.0830
     47 H15        -3.5871   11.7032    1.5192 H         1 <0>         0.0867
     48 H16        -4.1788   10.0786    1.9420 H         1 <0>         0.0761
     49 H17        -0.7791   12.4183    1.8947 H         1 <0>         0.1415
     50 H18         0.1567   14.5281    2.7453 H         1 <0>         0.1262
     51 H19        -2.9966   11.9486    5.5052 H         1 <0>         0.1203
     52 H20        -1.9752   13.6966    7.5253 H         1 <0>         0.0765
     53 H21        -2.9539   14.9380    6.6866 H         1 <0>         0.0825
     54 H22         0.0034   14.9690    7.3632 H         1 <0>         0.0732
     55 H23        -1.1603   16.3329    7.3110 H         1 <0>         0.0791
     56 H24         0.6122   15.8230    5.2514 H         1 <0>         0.0774
     57 H25        -1.0027   16.5416    4.9718 H         1 <0>         0.0834
@<TRIPOS>BOND
     1    1    2 1
     2    1   34 1
     3    1   35 1
     4    1   36 1
     5    2    3 1
     6    2    4 1
     7    2   13 1
     8    4   12 1
     9    4    5 2
    10    5    6 1
    11    5   37 1
    12    6   11 ar
    13    6    7 ar
    14    7    8 ar
    15    7   38 1
    16    8    9 ar
    17    8   39 1
    18    9   10 ar
    19    9   40 1
    20   10   11 ar
    21   10   41 1
    22   11   12 1
    23   13   14 am
    24   13   42 1
    25   14   15 2
    26   14   16 1
    27   16   17 1
    28   16   43 1
    29   16   44 1
    30   17   22 am
    31   17   18 am
    32   18   19 2
    33   18   20 1
    34   20   21 1
    35   20   24 1
    36   20   25 1
    37   21   22 am
    38   21   45 1
    39   22   23 2
    40   24   46 1
    41   24   47 1
    42   24   48 1
    43   25   30 ar
    44   25   26 ar
    45   26   27 ar
    46   26   49 1
    47   27   28 ar
    48   27   50 1
    49   28   33 1
    50   28   29 ar
    51   29   30 ar
    52   29   31 1
    53   30   51 1
    54   31   32 1
    55   31   52 1
    56   31   53 1
    57   32   33 1
    58   32   54 1
    59   32   55 1
    60   33   56 1
    61   33   57 1
@<TRIPOS>MOLECULE
ZINC20756603
   50    53     0     0     0
SMALL
USER_CHARGES
(3aS,4S,9bS)-N-allyl-4-(4-nitrophenyl)-3a,4,5,9b-tetrahydro-3H-cyclopenta[c]quinoline-8-sulfonamide
@<TRIPOS>ATOM
      1 C1         -5.0356    1.9050   -5.5085 C.2       1 <0>        -0.1746
      2 C2         -5.7806    2.3672   -4.5352 C.2       1 <0>        -0.1681
      3 C3         -5.1363    2.9090   -3.2852 C.3       1 <0>         0.1449
      4 N1         -5.6100    4.2741   -3.0440 N.pl3     1 <0>        -1.1213
      5 S1         -5.3722    4.9843   -1.5670 S.o2      1 <0>         2.6962
      6 O1         -5.8057    4.0467   -0.5911 O.2       1 <0>        -0.9608
      7 O2         -5.9113    6.2960   -1.6555 O.2       1 <0>        -0.9629
      8 C4         -3.6332    5.1680   -1.3512 C.ar      1 <0>        -0.7330
      9 C5         -3.0013    6.3218   -1.7784 C.ar      1 <0>         0.0262
     10 C6         -1.6392    6.4674   -1.6148 C.ar      1 <0>        -0.2136
     11 C7         -0.8918    5.4571   -1.0213 C.ar      1 <0>         0.2754
     12 C8         -1.5395    4.2967   -0.5832 C.ar      1 <0>        -0.1693
     13 C9         -2.9000    4.1591   -0.7545 C.ar      1 <0>         0.0256
     14 C10        -0.7109    3.2531    0.0590 C.3       1 <0>        -0.0153
     15 H1         -0.8358    3.5481    1.1113 H         1 <0>         0.1028
     16 C11        -1.1102    1.8225    0.0167 C.2       1 <0>        -0.1675
     17 C12        -0.0126    1.0758    0.0080 C.2       1 <0>        -0.1750
     18 C13         1.2284    1.9704    0.0009 C.3       1 <0>        -0.0880
     19 C14         0.6813    3.2519   -0.6412 C.3       1 <0>        -0.0772
     20 H2          0.8011    3.2331   -1.7345 H         1 <0>         0.1061
     21 C15         1.3355    4.5622   -0.2420 C.3       1 <0>         0.1927
     22 H3          1.3978    4.6933    0.8484 H         1 <0>         0.0948
     23 N2          0.4922    5.6192   -0.8844 N.pl3     1 <0>        -0.7496
     24 C16         2.7429    4.6260   -0.7771 C.ar      1 <0>        -0.0485
     25 C17         2.9650    4.9625   -2.0993 C.ar      1 <0>        -0.1081
     26 C18         4.2562    5.0256   -2.5889 C.ar      1 <0>        -0.0504
     27 C19         5.3247    4.7421   -1.7590 C.ar      1 <0>        -0.0406
     28 C20         5.1023    4.4004   -0.4381 C.ar      1 <0>        -0.0494
     29 C21         3.8114    4.3424    0.0528 C.ar      1 <0>        -0.1030
     30 N3          6.7070    4.8037   -2.2848 N.pl3     1 <0>         0.0245
     31 O3          7.6484    4.5535   -1.5536 O.2       1 <0>        -0.1540
     32 O4          6.9030    5.1048   -3.4486 O.3       1 <0>        -0.1552
     33 H4         -5.5059    1.5095   -6.4209 H         1 <0>         0.1061
     34 H5         -3.9397    1.9123   -5.4134 H         1 <0>         0.1005
     35 H6         -6.8765    2.3599   -4.6303 H         1 <0>         0.1207
     36 H7         -5.4032    2.2716   -2.4293 H         1 <0>         0.0901
     37 H8         -4.0434    2.9168   -3.4098 H         1 <0>         0.0633
     38 H9         -5.9733    4.8864   -3.8825 H         1 <0>         0.4422
     39 H10        -3.5757    7.1109   -2.2409 H         1 <0>         0.1383
     40 H11        -1.1512    7.3708   -1.9499 H         1 <0>         0.1296
     41 H12        -3.3956    3.2591   -0.4215 H         1 <0>         0.1362
     42 H13        -2.1007    1.3446   -0.0062 H         1 <0>         0.1369
     43 H14        -0.0937   -0.0212    0.0068 H         1 <0>         0.1340
     44 H15         1.5801    2.1177    1.0327 H         1 <0>         0.0846
     45 H16         2.0218    1.4921   -0.5922 H         1 <0>         0.0752
     46 H17         0.9583    6.5427   -1.2585 H         1 <0>         0.4255
     47 H18         2.1300    5.1798   -2.7489 H         1 <0>         0.1484
     48 H19         4.4300    5.2923   -3.6209 H         1 <0>         0.1561
     49 H20         5.9371    4.1785    0.2102 H         1 <0>         0.1579
     50 H21         3.6376    4.0751    1.0847 H         1 <0>         0.1507
@<TRIPOS>BOND
     1    1    2 2
     2    1   33 1
     3    1   34 1
     4    2    3 1
     5    2   35 1
     6    3    4 1
     7    3   36 1
     8    3   37 1
     9    4    5 1
    10    4   38 1
    11    5    6 2
    12    5    7 2
    13    5    8 1
    14    8   13 ar
    15    8    9 ar
    16    9   10 ar
    17    9   39 1
    18   10   11 ar
    19   10   40 1
    20   11   23 1
    21   11   12 ar
    22   12   13 ar
    23   12   14 1
    24   13   41 1
    25   14   15 1
    26   14   19 1
    27   14   16 1
    28   16   17 2
    29   16   42 1
    30   17   18 1
    31   17   43 1
    32   18   19 1
    33   18   44 1
    34   18   45 1
    35   19   20 1
    36   19   21 1
    37   21   22 1
    38   21   23 1
    39   21   24 1
    40   23   46 1
    41   24   29 ar
    42   24   25 ar
    43   25   26 ar
    44   25   47 1
    45   26   27 ar
    46   26   48 1
    47   27   28 ar
    48   27   30 1
    49   28   29 ar
    50   28   49 1
    51   29   50 1
    52   30   31 2
    53   30   32 1
@<TRIPOS>MOLECULE
ZINC36802143
   47    48     0     0     0
SMALL
USER_CHARGES

@<TRIPOS>ATOM
      1 C1         -0.0187    1.5258    0.0104 C.3       1 <0>        -0.1579
      2 C2          0.0021   -0.0041    0.0020 C.3       1 <0>        -0.0932
      3 C3         -1.4333   -0.5336    0.0129 C.3       1 <0>        -0.1546
      4 C4          0.7182   -0.4975   -1.2568 C.3       1 <0>         0.2841
      5 C5          0.6303   -2.0233   -1.3286 C.3       1 <0>        -0.1674
      6 C6          0.0783    0.0874   -2.4464 C.1       1 <0>         0.2024
      7 N1         -0.4155    0.5387   -3.3645 N.1       1 <0>        -0.4065
      8 N2          2.1249   -0.0911   -1.2094 N.am      1 <0>        -0.7172
      9 C7          2.9552   -0.4178   -2.2195 C.2       1 <0>         0.5037
     10 O1          2.5378   -1.0484   -3.1677 O.2       1 <0>        -0.5099
     11 C8          4.4022    0.0002   -2.1707 C.3       1 <0>         0.1011
     12 N3          5.0879   -0.4722   -3.3760 N.am      1 <0>        -0.5610
     13 C9          5.6953   -1.6707   -3.4809 C.2       1 <0>         0.5378
     14 O2          5.7743   -2.5287   -2.6280 O.2       1 <0>        -0.4344
     15 C10         6.2583   -1.7232   -4.8873 C.3       1 <0>         0.1720
     16 N4          5.8659   -0.4265   -5.4659 N.am      1 <0>        -0.7168
     17 C11         5.1836    0.2304   -4.5105 C.2       1 <0>         0.7117
     18 O3          4.7099    1.3397   -4.6602 O.2       1 <0>        -0.5319
     19 C12         5.6321   -2.8756   -5.6751 C.3       1 <0>        -0.1572
     20 C13         7.7590   -1.8561   -4.8531 C.ar      1 <0>        -0.0909
     21 C14         8.5523   -0.8837   -5.4327 C.ar      1 <0>        -0.0752
     22 C15         9.9286   -1.0050   -5.4017 C.ar      1 <0>        -0.1035
     23 C16        10.5134   -2.0998   -4.7900 C.ar      1 <0>        -0.0150
     24 C17         9.7202   -3.0728   -4.2095 C.ar      1 <0>        -0.1004
     25 C18         8.3426   -2.9484   -4.2366 C.ar      1 <0>        -0.0098
     26 Cl1         7.3463   -4.1662   -3.5029 Cl        1 <0>        -0.0162
     27 Cl2        12.2423   -2.2522   -4.7516 Cl        1 <0>        -0.0479
     28 H1          1.0039    1.9031    0.0027 H         1 <0>         0.0603
     29 H2         -0.5459    1.8868   -0.8726 H         1 <0>         0.0573
     30 H3         -0.5289    1.8773    0.9072 H         1 <0>         0.0710
     31 H4          0.5293   -0.3651    0.8851 H         1 <0>         0.1022
     32 H5         -1.9605   -0.1726   -0.8702 H         1 <0>         0.0573
     33 H6         -1.4185   -1.6235    0.0069 H         1 <0>         0.0697
     34 H7         -1.9435   -0.1821    0.9097 H         1 <0>         0.0710
     35 H8         -0.4163   -2.3257   -1.3639 H         1 <0>         0.0798
     36 H9          1.1405   -2.3748   -2.2254 H         1 <0>         0.0851
     37 H10         1.1041   -2.4564   -0.4477 H         1 <0>         0.0807
     38 H11         2.4587    0.4132   -0.4510 H         1 <0>         0.4120
     39 H12         4.4648    1.0872   -2.1195 H         1 <0>         0.1318
     40 H13         4.8760   -0.4329   -1.2897 H         1 <0>         0.1326
     41 H14         6.0593   -0.1094   -6.3619 H         1 <0>         0.4426
     42 H15         4.5516   -2.7395   -5.7211 H         1 <0>         0.0800
     43 H16         6.0401   -2.8887   -6.6858 H         1 <0>         0.0835
     44 H17         5.8586   -3.8197   -5.1796 H         1 <0>         0.0945
     45 H18         8.0964   -0.0290   -5.9103 H         1 <0>         0.1448
     46 H19        10.5479   -0.2453   -5.8554 H         1 <0>         0.1466
     47 H20        10.1762   -3.9275   -3.7319 H         1 <0>         0.1510
@<TRIPOS>BOND
     1    1    2 1
     2    1   28 1
     3    1   29 1
     4    1   30 1
     5    2    3 1
     6    2    4 1
     7    2   31 1
     8    3   32 1
     9    3   33 1
    10    3   34 1
    11    4    5 1
    12    4    6 1
    13    4    8 1
    14    5   35 1
    15    5   36 1
    16    5   37 1
    17    6    7 3
    18    8    9 am
    19    8   38 1
    20    9   10 2
    21    9   11 1
    22   11   12 1
    23   11   39 1
    24   11   40 1
    25   12   17 am
    26   12   13 am
    27   13   14 2
    28   13   15 1
    29   15   16 1
    30   15   19 1
    31   15   20 1
    32   16   17 am
    33   16   41 1
    34   17   18 2
    35   19   42 1
    36   19   43 1
    37   19   44 1
    38   20   25 ar
    39   20   21 ar
    40   21   22 ar
    41   21   45 1
    42   22   23 ar
    43   22   46 1
    44   23   24 ar
    45   23   27 1
    46   24   25 ar
    47   24   47 1
    48   25   26 1
@<TRIPOS>MOLECULE
ZINC09308616
   49    52     0     0     0
SMALL
USER_CHARGES

@<TRIPOS>ATOM
      1 C1         -0.0187    1.5258    0.0104 C.3       1 <0>        -0.1530
      2 C2          0.0021   -0.0041    0.0020 C.3       1 <0>         0.0512
      3 O1          0.6932   -0.4774    1.1597 O.3       1 <0>        -0.3005
      4 C3          0.8020   -1.8248    1.3057 C.ar      1 <0>         0.1260
      5 C4          0.2590   -2.6706    0.3501 C.ar      1 <0>        -0.1721
      6 C5          0.3670   -4.0384    0.4940 C.ar      1 <0>        -0.0774
      7 C6          1.0239   -4.5738    1.6024 C.ar      1 <0>        -0.0461
      8 C7          1.5707   -3.7233    2.5638 C.ar      1 <0>        -0.1508
      9 C8          1.4636   -2.3529    2.4117 C.ar      1 <0>         0.1041
     10 O2          2.0000   -1.5211    3.3444 O.3       1 <0>        -0.3017
     11 C9          2.6642   -2.1314    4.4527 C.3       1 <0>         0.0241
     12 C10         1.1399   -6.0405    1.7583 C.2       1 <0>         0.1881
     13 C11         0.1541   -6.9498    1.5659 C.2       1 <0>        -0.2529
     14 C12         0.6851   -8.2300    1.8180 C.2       1 <0>         0.2719
     15 N1          1.9378   -8.0963    2.1493 N.2       1 <0>        -0.2490
     16 N2          2.2629   -6.7313    2.1173 N.pl3     1 <0>        -0.4579
     17 H1          3.1305   -6.3462    2.3170 H         1 <0>         0.4513
     18 O3         -0.0682   -9.3575    1.7044 O.3       1 <0>        -0.2103
     19 C13        -1.2594   -9.2489    1.0836 C.2       1 <0>         0.4445
     20 C14        -1.8705   -8.0794    0.8006 C.2       1 <0>        -0.2680
     21 C15        -1.2811   -6.7381    1.1573 C.3       1 <0>         0.1231
     22 H2         -1.3237   -6.0756    0.2929 H         1 <0>         0.0973
     23 C16        -2.0518   -6.1324    2.3020 C.ar      1 <0>        -0.0578
     24 C17        -2.1422   -6.8046    3.5068 C.ar      1 <0>        -0.0955
     25 C18        -2.8489   -6.2497    4.5571 C.ar      1 <0>        -0.1060
     26 C19        -3.4661   -5.0224    4.4033 C.ar      1 <0>        -0.1120
     27 C20        -3.3760   -4.3494    3.1982 C.ar      1 <0>        -0.0309
     28 C21        -2.6632   -4.9026    2.1490 C.ar      1 <0>        -0.0988
     29 Cl1        -4.1508   -2.8080    3.0043 Cl        1 <0>        -0.0708
     30 C22        -3.1358   -8.1137    0.1310 C.1       1 <0>         0.2696
     31 N3         -4.1396   -8.1410   -0.4002 N.1       1 <0>        -0.4384
     32 N4         -1.8949  -10.4078    0.7131 N.pl3     1 <0>        -0.8298
     33 H3          1.0039    1.9031    0.0027 H         1 <0>         0.0671
     34 H4         -0.5459    1.8868   -0.8726 H         1 <0>         0.0798
     35 H5         -0.5289    1.8773    0.9072 H         1 <0>         0.0675
     36 H6         -1.0205   -0.3814    0.0098 H         1 <0>         0.0649
     37 H7          0.5123   -0.3556   -0.8948 H         1 <0>         0.0640
     38 H8         -0.2497   -2.2576   -0.5084 H         1 <0>         0.1432
     39 H9         -0.0573   -4.6949   -0.2512 H         1 <0>         0.1360
     40 H10         2.0795   -4.1342    3.4232 H         1 <0>         0.1371
     41 H11         3.0446   -1.3575    5.1193 H         1 <0>         0.1038
     42 H12         1.9610   -2.7640    4.9942 H         1 <0>         0.0561
     43 H13         3.4938   -2.7383    4.0897 H         1 <0>         0.0549
     44 H14        -1.6607   -7.7638    3.6272 H         1 <0>         0.1211
     45 H15        -2.9191   -6.7752    5.4980 H         1 <0>         0.1308
     46 H16        -4.0188   -4.5892    5.2238 H         1 <0>         0.1315
     47 H17        -2.5888   -4.3756    1.2093 H         1 <0>         0.1307
     48 H18        -1.4850  -11.2668    0.9002 H         1 <0>         0.4127
     49 H19        -2.7539  -10.3678    0.2642 H         1 <0>         0.4273
@<TRIPOS>BOND
     1    1    2 1
     2    1   33 1
     3    1   34 1
     4    1   35 1
     5    2    3 1
     6    2   36 1
     7    2   37 1
     8    3    4 1
     9    4    9 ar
    10    4    5 ar
    11    5    6 ar
    12    5   38 1
    13    6    7 ar
    14    6   39 1
    15    7    8 ar
    16    7   12 1
    17    8    9 ar
    18    8   40 1
    19    9   10 1
    20   10   11 1
    21   11   41 1
    22   11   42 1
    23   11   43 1
    24   12   16 1
    25   12   13 2
    26   13   21 1
    27   13   14 1
    28   14   15 2
    29   14   18 1
    30   15   16 1
    31   16   17 1
    32   18   19 1
    33   19   20 2
    34   19   32 1
    35   20   21 1
    36   20   30 1
    37   21   22 1
    38   21   23 1
    39   23   28 ar
    40   23   24 ar
    41   24   25 ar
    42   24   44 1
    43   25   26 ar
    44   25   45 1
    45   26   27 ar
    46   26   46 1
    47   27   28 ar
    48   27   29 1
    49   28   47 1
    50   30   31 3
    51   32   48 1
    52   32   49 1
@<TRIPOS>MOLECULE
ZINC09006765
   54    58     0     0     0
SMALL
USER_CHARGES
N-[2-benzo[1,3]dioxol-5-ylsulfonyl-2-(3-pyridyl)ethyl]naphthalene-2-sulfonamide
@<TRIPOS>ATOM
      1 C1        -10.1781   -1.3774    6.6445 C.ar      1 <0>        -0.0919
      2 C2        -10.5550   -0.1691    6.0609 C.ar      1 <0>        -0.1212
      3 C3        -10.0182    0.2352    4.8775 C.ar      1 <0>        -0.0896
      4 C4         -9.0692   -0.5755    4.2315 C.ar      1 <0>        -0.0802
      5 C5         -8.4931   -0.1918    3.0083 C.ar      1 <0>         0.0224
      6 C6         -7.5776   -1.0028    2.4114 C.ar      1 <0>        -0.6753
      7 C7         -7.2046   -2.2136    2.9923 C.ar      1 <0>        -0.0488
      8 C8         -7.7370   -2.6149    4.1788 C.ar      1 <0>        -0.1148
      9 C9         -8.6859   -1.8041    4.8248 C.ar      1 <0>        -0.0112
     10 C10        -9.2625   -2.1882    6.0475 C.ar      1 <0>        -0.1197
     11 S1         -6.8583   -0.5181    0.8777 S.o2      1 <0>         2.6895
     12 O1         -7.7720    0.3828    0.2672 O.2       1 <0>        -0.9433
     13 O2         -6.4222   -1.7102    0.2390 O.2       1 <0>        -0.9422
     14 N1         -5.4963    0.3555    1.2300 N.pl3     1 <0>        -1.1348
     15 C11        -4.3633   -0.2912    1.8966 C.3       1 <0>         0.1307
     16 C12        -3.1238    0.5971    1.7725 C.3       1 <0>        -0.5286
     17 H1         -3.3193    1.5613    2.2417 H         1 <0>         0.1623
     18 C13        -1.9583   -0.0681    2.4583 C.ar      1 <0>        -0.1465
     19 C14        -1.3123    0.5600    3.5124 C.ar      1 <0>        -0.0463
     20 C15        -0.2479   -0.0915    4.1162 C.ar      1 <0>        -0.1699
     21 C16         0.1376   -1.3322    3.6443 C.ar      1 <0>         0.1133
     22 N2         -0.4971   -1.8973    2.6361 N.ar      1 <0>        -0.4687
     23 C17        -1.5163   -1.3089    2.0409 C.ar      1 <0>         0.1068
     24 S2         -2.7316    0.8464    0.0190 S.o2      1 <0>         2.4972
     25 O3         -3.6790    1.7236   -0.5745 O.2       1 <0>        -0.9182
     26 O4         -2.4123   -0.3959   -0.5925 O.2       1 <0>        -0.9113
     27 C18        -1.2192    1.7503    0.0173 C.ar      1 <0>        -0.6561
     28 C19        -1.2417    3.1326    0.0328 C.ar      1 <0>        -0.0081
     29 C20        -0.0578    3.8463    0.0241 C.ar      1 <0>        -0.1210
     30 C21         1.1551    3.1770    0.0081 C.ar      1 <0>         0.0944
     31 C22         1.1779    1.7845    0.0004 C.ar      1 <0>         0.0152
     32 C23        -0.0126    1.0758    0.0080 C.ar      1 <0>         0.0002
     33 O5          2.4782    1.3695   -0.0147 O.3       1 <0>        -0.3007
     34 C24         3.2432    2.5171   -0.4283 C.3       1 <0>         0.2098
     35 O6          2.4412    3.6344   -0.0021 O.3       1 <0>        -0.3014
     36 H2        -10.6194   -1.6748    7.5843 H         1 <0>         0.1293
     37 H3        -11.2844    0.4556    6.5551 H         1 <0>         0.1297
     38 H4        -10.3201    1.1738    4.4370 H         1 <0>         0.1347
     39 H5         -8.7757    0.7416    2.5443 H         1 <0>         0.1482
     40 H6         -6.4792   -2.8407    2.4956 H         1 <0>         0.1420
     41 H7         -7.4358   -3.5540    4.6190 H         1 <0>         0.1378
     42 H8         -8.9800   -3.1217    6.5114 H         1 <0>         0.1333
     43 H9         -5.4486    1.2954    0.9949 H         1 <0>         0.4295
     44 H10        -4.1677   -1.2554    1.4274 H         1 <0>         0.1062
     45 H11        -4.5989   -0.4410    2.9503 H         1 <0>         0.1039
     46 H12        -1.6332    1.5318    3.8574 H         1 <0>         0.1408
     47 H13         0.2761    0.3664    4.9421 H         1 <0>         0.1416
     48 H14         0.9680   -1.8449    4.1069 H         1 <0>         0.1623
     49 H15        -2.0115   -1.8029    1.2179 H         1 <0>         0.1748
     50 H16        -2.1863    3.6560    0.0456 H         1 <0>         0.1595
     51 H17        -0.0784    4.9261    0.0300 H         1 <0>         0.1503
     52 H18         0.0021   -0.0041    0.0020 H         1 <0>         0.1517
     53 H19         3.3666    2.5252   -1.5112 H         1 <0>         0.0925
     54 H20         4.2142    2.5316    0.0668 H         1 <0>         0.1399
@<TRIPOS>BOND
     1    1   10 ar
     2    1    2 ar
     3    1   36 1
     4    2    3 ar
     5    2   37 1
     6    3    4 ar
     7    3   38 1
     8    4    9 ar
     9    4    5 ar
    10    5    6 ar
    11    5   39 1
    12    6    7 ar
    13    6   11 1
    14    7    8 ar
    15    7   40 1
    16    8    9 ar
    17    8   41 1
    18    9   10 ar
    19   10   42 1
    20   11   12 2
    21   11   13 2
    22   11   14 1
    23   14   15 1
    24   14   43 1
    25   15   16 1
    26   15   44 1
    27   15   45 1
    28   16   17 1
    29   16   18 1
    30   16   24 1
    31   18   23 ar
    32   18   19 ar
    33   19   20 ar
    34   19   46 1
    35   20   21 ar
    36   20   47 1
    37   21   22 ar
    38   21   48 1
    39   22   23 ar
    40   23   49 1
    41   24   25 2
    42   24   26 2
    43   24   27 1
    44   27   32 ar
    45   27   28 ar
    46   28   29 ar
    47   28   50 1
    48   29   30 ar
    49   29   51 1
    50   30   35 1
    51   30   31 ar
    52   31   32 ar
    53   31   33 1
    54   32   52 1
    55   33   34 1
    56   34   35 1
    57   34   53 1
    58   34   54 1
@<TRIPOS>MOLECULE
ZINC12862761
   53    56     0     0     0
SMALL
USER_CHARGES
3-(2-oxo-6-pyrrolidin-1-ylsulfonyl-1,3-benzoxazol-3-yl)-N-[4-(trifluoromethyl)phenyl]propanamide
@<TRIPOS>ATOM
      1 C1         -2.9802    7.9631   10.6565 C.ar      1 <0>        -0.0494
      2 C2         -2.9378    6.8355    9.8602 C.ar      1 <0>        -0.1228
      3 C3         -1.7387    6.1580    9.6817 C.ar      1 <0>         0.1742
      4 C4         -0.5870    6.6138   10.3097 C.ar      1 <0>        -0.1447
      5 C5         -0.6349    7.7453   11.1001 C.ar      1 <0>        -0.0493
      6 C6         -1.8305    8.4174   11.2762 C.ar      1 <0>        -0.1973
      7 C7         -1.8805    9.6479   12.1448 C.3       1 <0>         0.5096
      8 F1         -2.1646    9.2767   13.4633 F         1 <0>        -0.1759
      9 F2         -0.6440   10.3007   12.1003 F         1 <0>        -0.1768
     10 F3         -2.8793   10.5086   11.6771 F         1 <0>        -0.1762
     11 N1         -1.6924    5.0153    8.8756 N.am      1 <0>        -0.6724
     12 C8         -2.4680    4.9341    7.7764 C.2       1 <0>         0.5252
     13 O1         -3.2667    5.8134    7.5315 O.2       1 <0>        -0.5108
     14 C9         -2.3430    3.7508    6.8516 C.3       1 <0>        -0.1640
     15 C10        -3.3284    3.9039    5.6913 C.3       1 <0>         0.1442
     16 N2         -3.2069    2.7536    4.7923 N.am      1 <0>        -0.5475
     17 C11        -2.3555    2.6529    3.6923 C.ar      1 <0>         0.1258
     18 C12        -1.4271    3.5120    3.1255 C.ar      1 <0>        -0.1205
     19 C13        -0.7148    3.1152    2.0106 C.ar      1 <0>         0.0028
     20 C14        -0.9341    1.8677    1.4523 C.ar      1 <0>        -0.6738
     21 C15        -1.8579    1.0065    2.0114 C.ar      1 <0>         0.0269
     22 C16        -2.5734    1.3937    3.1337 C.ar      1 <0>         0.0166
     23 O2         -3.5211    0.7793    3.8833 O.3       1 <0>        -0.2282
     24 C17        -3.8977    1.5994    4.8769 C.2       1 <0>         0.6377
     25 O3         -4.7331    1.3413    5.7220 O.2       1 <0>        -0.4689
     26 S1         -0.0253    1.3733    0.0261 S.o2      1 <0>         2.7135
     27 O4         -0.0149   -0.0477    0.0236 O.2       1 <0>        -0.9438
     28 O5          1.1686    2.1439    0.0179 O.2       1 <0>        -0.9433
     29 N3         -0.9005    1.8425   -1.2992 N.pl3     1 <0>        -1.0108
     30 C18        -1.9165    1.0316   -1.9860 C.3       1 <0>         0.1160
     31 C19        -2.4436    1.8660   -3.1723 C.3       1 <0>        -0.1299
     32 C20        -1.2882    2.8692   -3.4294 C.3       1 <0>        -0.1302
     33 C21        -0.7854    3.1401   -1.9894 C.3       1 <0>         0.1117
     34 H1         -3.9124    8.4905   10.7957 H         1 <0>         0.1413
     35 H2         -3.8360    6.4812    9.3765 H         1 <0>         0.1514
     36 H3          0.3460    6.0863   10.1768 H         1 <0>         0.1397
     37 H4          0.2615    8.1031   11.5849 H         1 <0>         0.1422
     38 H5         -1.1019    4.2815    9.1078 H         1 <0>         0.4176
     39 H6         -2.5668    2.8358    7.4001 H         1 <0>         0.1112
     40 H7         -1.3266    3.7008    6.4610 H         1 <0>         0.1095
     41 H8         -3.1046    4.8189    5.1429 H         1 <0>         0.1095
     42 H9         -4.3448    3.9539    6.0820 H         1 <0>         0.1139
     43 H10        -1.2580    4.4875    3.5571 H         1 <0>         0.1480
     44 H11         0.0123    3.7817    1.5707 H         1 <0>         0.1587
     45 H12        -2.0223    0.0324    1.5749 H         1 <0>         0.1602
     46 H13        -1.4686    0.1072   -2.3506 H         1 <0>         0.0775
     47 H14        -2.7345    0.8051   -1.3021 H         1 <0>         0.0679
     48 H15        -3.3587    2.3927   -2.9016 H         1 <0>         0.0773
     49 H16        -2.6077    1.2347   -4.0456 H         1 <0>         0.0842
     50 H17        -1.6603    3.7834   -3.8918 H         1 <0>         0.0857
     51 H18        -0.5055    2.4161   -4.0378 H         1 <0>         0.0792
     52 H19        -1.4134    3.8859   -1.5023 H         1 <0>         0.0699
     53 H20         0.2534    3.4700   -2.0062 H         1 <0>         0.0871
@<TRIPOS>BOND
     1    1    6 ar
     2    1    2 ar
     3    1   34 1
     4    2    3 ar
     5    2   35 1
     6    3    4 ar
     7    3   11 1
     8    4    5 ar
     9    4   36 1
    10    5    6 ar
    11    5   37 1
    12    6    7 1
    13    7    8 1
    14    7    9 1
    15    7   10 1
    16   11   12 am
    17   11   38 1
    18   12   13 2
    19   12   14 1
    20   14   15 1
    21   14   39 1
    22   14   40 1
    23   15   16 1
    24   15   41 1
    25   15   42 1
    26   16   24 am
    27   16   17 1
    28   17   22 ar
    29   17   18 ar
    30   18   19 ar
    31   18   43 1
    32   19   20 ar
    33   19   44 1
    34   20   21 ar
    35   20   26 1
    36   21   22 ar
    37   21   45 1
    38   22   23 1
    39   23   24 1
    40   24   25 2
    41   26   27 2
    42   26   28 2
    43   26   29 1
    44   29   33 1
    45   29   30 1
    46   30   31 1
    47   30   46 1
    48   30   47 1
    49   31   32 1
    50   31   48 1
    51   31   49 1
    52   32   33 1
    53   32   50 1
    54   32   51 1
    55   33   52 1
    56   33   53 1
@<TRIPOS>MOLECULE
ZINC23907735
   54    57     0     0     0
SMALL
USER_CHARGES
2-[1-(3-chlorophenyl)tetrazol-5-yl]sulfanyl-N-[[4-(morpholinomethyl)phenyl]methyl]acetamide
@<TRIPOS>ATOM
      1 C1          3.4329    4.6485    0.6815 C.ar      1 <0>        -0.0785
      2 C2          2.9643    3.3489    0.6848 C.ar      1 <0>        -0.1096
      3 C3          1.7992    3.0304    0.0008 C.ar      1 <0>         0.1358
      4 C4          1.1018    4.0215   -0.6765 C.ar      1 <0>        -0.0875
      5 C5          1.5725    5.3211   -0.6725 C.ar      1 <0>        -0.0193
      6 C6          2.7375    5.6340    0.0062 C.ar      1 <0>        -0.0932
      7 Cl1         0.7016    6.5616   -1.5189 Cl        1 <0>        -0.0451
      8 N1          1.3243    1.7110   -0.0014 N.pl3     1 <0>        -0.3179
      9 C7          2.0614    0.5654   -0.0146 C.2       1 <0>         0.2019
     10 N2          1.2103   -0.4381   -0.0119 N.2       1 <0>        -0.3282
     11 N3          0.0021   -0.0041    0.0020 N.2       1 <0>        -0.0212
     12 N4         -0.0154    1.2846    0.0091 N.2       1 <0>        -0.0646
     13 S1          3.8195    0.4496   -0.0329 S.3       1 <0>         0.1342
     14 C8          4.0158   -1.3497   -0.0445 C.3       1 <0>        -0.1674
     15 C9          5.4827   -1.6949   -0.0610 C.2       1 <0>         0.5359
     16 O1          6.3135   -0.8114   -0.0647 O.2       1 <0>        -0.5284
     17 N5          5.8712   -2.9854   -0.0718 N.am      1 <0>        -0.7267
     18 C10         7.2972   -3.3209   -0.0880 C.3       1 <0>         0.1642
     19 C11         7.4606   -4.8190   -0.0976 C.ar      1 <0>        -0.1100
     20 C12         7.5533   -5.5119    1.0950 C.ar      1 <0>        -0.0976
     21 C13         7.6988   -6.8865    1.0862 C.ar      1 <0>        -0.0985
     22 C14         7.7608   -7.5673   -0.1153 C.ar      1 <0>        -0.0670
     23 C15         7.6734   -6.8739   -1.3079 C.ar      1 <0>        -0.1160
     24 C16         7.5236   -5.4997   -1.2991 C.ar      1 <0>        -0.0979
     25 C17         7.9232   -9.0655   -0.1249 C.3       1 <0>         0.0887
     26 N6          9.3529   -9.4030   -0.1421 N.3       1 <0>        -0.5307
     27 C18         9.9784   -8.9819   -1.4041 C.3       1 <0>         0.0122
     28 C19        11.4757   -9.2977   -1.3555 C.3       1 <0>         0.0613
     29 O2         11.6554  -10.6936   -1.1015 O.3       1 <0>        -0.3847
     30 C20        11.0591  -11.1379    0.1201 C.3       1 <0>         0.0614
     31 C21         9.5576  -10.8407    0.0864 C.3       1 <0>         0.0158
     32 H1          4.3415    4.8956    1.2106 H         1 <0>         0.1535
     33 H2          3.5062    2.5805    1.2161 H         1 <0>         0.1462
     34 H3          0.1924    3.7775   -1.2055 H         1 <0>         0.1494
     35 H4          3.1036    6.6501    0.0086 H         1 <0>         0.1487
     36 H5          3.5491   -1.7753    0.8561 H         1 <0>         0.1353
     37 H6          3.5311   -1.7657   -0.9401 H         1 <0>         0.1347
     38 H7          5.1177   -3.7867   -0.0685 H         1 <0>         0.4293
     39 H8          7.7638   -2.8953   -0.9887 H         1 <0>         0.0790
     40 H9          7.7820   -2.9049    0.8075 H         1 <0>         0.0795
     41 H10         7.5086   -4.9796    2.0336 H         1 <0>         0.1251
     42 H11         7.7668   -7.4283    2.0180 H         1 <0>         0.1256
     43 H12         7.7219   -7.4058   -2.2466 H         1 <0>         0.1213
     44 H13         7.4553   -4.9579   -2.2309 H         1 <0>         0.1245
     45 H14         7.4569   -9.4906    0.7761 H         1 <0>         0.0881
     46 H15         7.4375   -9.4813   -1.0200 H         1 <0>         0.0470
     47 H16         9.5145   -9.5233   -2.2418 H         1 <0>         0.0434
     48 H17         9.8341   -7.9001   -1.5418 H         1 <0>         0.0912
     49 H18        11.9371   -9.0360   -2.3192 H         1 <0>         0.0999
     50 H19        11.9479   -8.7131   -0.5522 H         1 <0>         0.0608
     51 H20        11.2181  -12.2204    0.2332 H         1 <0>         0.1009
     52 H21        11.5206  -10.6090    0.9670 H         1 <0>         0.0613
     53 H22         9.1034  -11.1277    1.0463 H         1 <0>         0.0889
     54 H23         9.0869  -11.4120   -0.7273 H         1 <0>         0.0450
@<TRIPOS>BOND
     1    1    6 ar
     2    1    2 ar
     3    1   32 1
     4    2    3 ar
     5    2   33 1
     6    3    4 ar
     7    3    8 1
     8    4    5 ar
     9    4   34 1
    10    5    6 ar
    11    5    7 1
    12    6   35 1
    13    8   12 1
    14    8    9 1
    15    9   10 2
    16    9   13 1
    17   10   11 1
    18   11   12 2
    19   13   14 1
    20   14   15 1
    21   14   36 1
    22   14   37 1
    23   15   16 2
    24   15   17 am
    25   17   18 1
    26   17   38 1
    27   18   19 1
    28   18   39 1
    29   18   40 1
    30   19   24 ar
    31   19   20 ar
    32   20   21 ar
    33   20   41 1
    34   21   22 ar
    35   21   42 1
    36   22   23 ar
    37   22   25 1
    38   23   24 ar
    39   23   43 1
    40   24   44 1
    41   25   26 1
    42   25   45 1
    43   25   46 1
    44   26   31 1
    45   26   27 1
    46   27   28 1
    47   27   47 1
    48   27   48 1
    49   28   29 1
    50   28   49 1
    51   28   50 1
    52   29   30 1
    53   30   31 1
    54   30   51 1
    55   30   52 1
    56   31   53 1
    57   31   54 1
@<TRIPOS>MOLECULE
ZINC35563890
   57    60     0     0     0
SMALL
USER_CHARGES

@<TRIPOS>ATOM
      1 C1         -1.9626    0.5959    0.5277 C.3       1 <0>        -0.1088
      2 C2         -0.9006   -0.4356    0.2465 C.ar      1 <0>        -0.0805
      3 C3         -0.9495   -1.1778   -0.9176 C.ar      1 <0>        -0.0762
      4 C4          0.0236   -2.1245   -1.1774 C.ar      1 <0>        -0.1455
      5 C5          1.0506   -2.3324   -0.2711 C.ar      1 <0>         0.1118
      6 C6          1.1041   -1.5919    0.8958 C.ar      1 <0>        -0.1557
      7 C7          0.1304   -0.6364    1.1546 C.ar      1 <0>         0.1792
      8 N1          0.1847    0.1194    2.3328 N.pl3     1 <0>        -0.3298
      9 C8          0.3788   -0.3684    3.5860 C.2       1 <0>         0.0840
     10 C9          0.3668    0.6750    4.4436 C.2       1 <0>        -0.2306
     11 C10         0.1577    1.8499    3.6932 C.2       1 <0>         0.1580
     12 N2          0.0544    1.5111    2.4246 N.2       1 <0>        -0.2777
     13 C11         0.0743    3.2264    4.2363 C.2       1 <0>        -0.2137
     14 C12        -0.1420    4.3042    3.3843 C.2       1 <0>         0.2472
     15 N3         -0.2118    5.5243    3.9046 N.2       1 <0>        -0.4957
     16 C13        -0.0812    5.7234    5.1935 C.2       1 <0>         0.3389
     17 N4          0.1337    4.7263    6.1074 N.am      1 <0>        -0.4663
     18 C14         0.2074    3.4526    5.6176 C.2       1 <0>         0.5494
     19 O1          0.3928    2.5150    6.3761 O.2       1 <0>        -0.5075
     20 C15         0.2489    5.1064    7.4234 C.2       1 <0>         0.0953
     21 C16         0.1542    6.3867    7.7806 C.2       1 <0>        -0.1746
     22 S1         -0.1183    7.1864    6.2072 S.3       1 <0>         0.1607
     23 C17         0.4857    4.0578    8.4796 C.3       1 <0>        -0.1000
     24 C18        -0.8340    3.4713    8.9099 C.2       1 <0>         0.5297
     25 O2         -1.8654    3.8658    8.4083 O.2       1 <0>        -0.5377
     26 N5         -0.8683    2.5083    9.8522 N.am      1 <0>        -0.7206
     27 C19        -2.1513    1.9381   10.2706 C.3       1 <0>         0.1241
     28 C20        -1.9109    0.8735   11.3429 C.3       1 <0>         0.0472
     29 O3         -1.3715    1.4902   12.5137 O.3       1 <0>        -0.3903
     30 C21        -1.1087    0.5784   13.5822 C.3       1 <0>         0.0301
     31 C22        -0.2937    4.0921    1.9001 C.3       1 <0>        -0.1172
     32 C23         0.5726   -1.8169    3.9539 C.3       1 <0>        -0.0956
     33 F1          1.9999   -3.2589   -0.5271 F         1 <0>        -0.1320
     34 H1         -1.6166    1.5740    0.1936 H         1 <0>         0.0819
     35 H2         -2.8759    0.3319   -0.0055 H         1 <0>         0.0690
     36 H3         -2.1635    0.6280    1.5986 H         1 <0>         0.0673
     37 H4         -1.7494   -1.0185   -1.6256 H         1 <0>         0.1441
     38 H5         -0.0169   -2.7034   -2.0882 H         1 <0>         0.1437
     39 H6          1.9045   -1.7535    1.6027 H         1 <0>         0.1421
     40 H7          0.4941    0.6190    5.5146 H         1 <0>         0.1672
     41 H8          0.2240    6.8261    8.7647 H         1 <0>         0.2224
     42 H9          1.1186    3.2690    8.0730 H         1 <0>         0.1359
     43 H10         0.9787    4.5125    9.3389 H         1 <0>         0.1208
     44 H11        -0.0434    2.1927   10.2534 H         1 <0>         0.4049
     45 H12        -2.7842    2.7269   10.6771 H         1 <0>         0.0778
     46 H13        -2.6442    1.4834    9.4113 H         1 <0>         0.0833
     47 H14        -2.8545    0.3874   11.5902 H         1 <0>         0.0686
     48 H15        -1.2073    0.1310   10.9664 H         1 <0>         0.0588
     49 H16        -2.0358    0.0861   13.8761 H         1 <0>         0.0434
     50 H17        -0.3885   -0.1703   13.2522 H         1 <0>         0.0431
     51 H18        -0.7014    1.1239   14.4335 H         1 <0>         0.0885
     52 H19        -1.3452    3.9316    1.6616 H         1 <0>         0.0939
     53 H20         0.0693    4.9716    1.3683 H         1 <0>         0.0844
     54 H21         0.2849    3.2196    1.5967 H         1 <0>         0.1160
     55 H22         1.6384   -2.0410    3.9984 H         1 <0>         0.0828
     56 H23         0.1201   -2.0084    4.9269 H         1 <0>         0.0884
     57 H24         0.0996   -2.4491    3.2025 H         1 <0>         0.0722
@<TRIPOS>BOND
     1    1    2 1
     2    1   34 1
     3    1   35 1
     4    1   36 1
     5    2    7 ar
     6    2    3 ar
     7    3    4 ar
     8    3   37 1
     9    4    5 ar
    10    4   38 1
    11    5    6 ar
    12    5   33 1
    13    6    7 ar
    14    6   39 1
    15    7    8 1
    16    8   12 1
    17    8    9 1
    18    9   10 2
    19    9   32 1
    20   10   11 1
    21   10   40 1
    22   11   12 2
    23   11   13 1
    24   13   18 1
    25   13   14 2
    26   14   15 1
    27   14   31 1
    28   15   16 2
    29   16   22 1
    30   16   17 1
    31   17   18 am
    32   17   20 1
    33   18   19 2
    34   20   21 2
    35   20   23 1
    36   21   22 1
    37   21   41 1
    38   23   24 1
    39   23   42 1
    40   23   43 1
    41   24   25 2
    42   24   26 am
    43   26   27 1
    44   26   44 1
    45   27   28 1
    46   27   45 1
    47   27   46 1
    48   28   29 1
    49   28   47 1
    50   28   48 1
    51   29   30 1
    52   30   49 1
    53   30   50 1
    54   30   51 1
    55   31   52 1
    56   31   53 1
    57   31   54 1
    58   32   55 1
    59   32   56 1
    60   32   57 1
@<TRIPOS>MOLECULE
ZINC41082543
   55    58     0     0     0
SMALL
USER_CHARGES

@<TRIPOS>ATOM
      1 C1         -0.3266    1.4733    0.4787 C.3       1 <0>        -0.1521
      2 C2         -0.2119   -0.0472    0.3525 C.3       1 <0>         0.0479
      3 O1          0.6469   -0.5470    1.3795 O.3       1 <0>        -0.2911
      4 C3          0.8568   -1.8903    1.4093 C.ar      1 <0>         0.1307
      5 C4          0.2554   -2.7032    0.4700 C.ar      1 <0>        -0.1590
      6 C5          0.4742   -4.0877    0.5034 C.ar      1 <0>        -0.0702
      7 C6          1.3032   -4.6381    1.4913 C.ar      1 <0>        -0.1106
      8 C7          1.8987   -3.8182    2.4241 C.ar      1 <0>        -0.0166
      9 C8          1.6843   -2.4448    2.3858 C.ar      1 <0>         0.0961
     10 O2          2.2788   -1.6412    3.3049 O.3       1 <0>        -0.3031
     11 C9          1.5593   -1.3970    4.5151 C.3       1 <0>         0.0678
     12 C10         2.3814   -0.4774    5.4204 C.3       1 <0>         0.0641
     13 O3          2.5212    0.8018    4.7990 O.3       1 <0>        -0.3031
     14 C11         3.2298    1.7428    5.4767 C.ar      1 <0>         0.1306
     15 C12         3.7840    1.4394    6.7118 C.ar      1 <0>        -0.2120
     16 C13         4.5042    2.3976    7.3986 C.ar      1 <0>        -0.0800
     17 C14         4.6725    3.6582    6.8562 C.ar      1 <0>        -0.1597
     18 C15         4.1208    3.9633    5.6256 C.ar      1 <0>        -0.0802
     19 C16         3.4049    3.0067    4.9321 C.ar      1 <0>        -0.1514
     20 Cl1         2.9248   -4.5004    3.6469 Cl        1 <0>        -0.0326
     21 C17        -0.1613   -4.9562   -0.4902 C.2       1 <0>         0.0511
     22 C18        -0.5352   -6.2358   -0.1471 C.2       1 <0>        -0.2346
     23 C19        -0.4864   -6.7272    1.2642 C.2       1 <0>         0.4626
     24 N1         -0.6703   -5.9577    2.3046 N.2       1 <0>        -0.6551
     25 N2         -0.2255   -8.0879    1.3518 N.pl3     1 <0>        -0.4145
     26 C20        -0.4881   -8.9331    0.3033 C.2       1 <0>         0.4826
     27 N3         -0.8968   -8.5265   -0.8972 N.2       1 <0>        -0.5767
     28 C21        -1.0184   -7.2136   -1.1536 C.2       1 <0>         0.5410
     29 O4         -1.5153   -6.8290   -2.2001 O.2       1 <0>        -0.4657
     30 C22        -0.2249  -10.2313    0.7631 C.2       1 <0>        -0.2553
     31 C23         0.2378  -10.1493    2.0299 C.2       1 <0>         0.1314
     32 O5          0.2918   -8.8594    2.4011 O.3       1 <0>        -0.0351
     33 C24         0.6312  -11.3214    2.8917 C.3       1 <0>        -0.0931
     34 H1          0.6615    1.9219    0.3762 H         1 <0>         0.0697
     35 H2         -0.9817    1.8545   -0.3047 H         1 <0>         0.0819
     36 H3         -0.7413    1.7266    1.4543 H         1 <0>         0.0682
     37 H4         -1.2000   -0.4958    0.4549 H         1 <0>         0.0656
     38 H5          0.2028   -0.3006   -0.6232 H         1 <0>         0.0673
     39 H6         -0.3825   -2.2740   -0.2885 H         1 <0>         0.1517
     40 H7          1.4743   -5.7040    1.5209 H         1 <0>         0.1408
     41 H8          0.6071   -0.9206    4.2819 H         1 <0>         0.0708
     42 H9          1.3772   -2.3421    5.0266 H         1 <0>         0.0786
     43 H10         1.8742   -0.3625    6.3783 H         1 <0>         0.0840
     44 H11         3.3676   -0.9129    5.5813 H         1 <0>         0.0752
     45 H12         3.6522    0.4551    7.1362 H         1 <0>         0.1261
     46 H13         4.9359    2.1619    8.3601 H         1 <0>         0.1245
     47 H14         5.2356    4.4060    7.3948 H         1 <0>         0.1238
     48 H15         4.2533    4.9488    5.2043 H         1 <0>         0.1293
     49 H16         2.9779    3.2441    3.9689 H         1 <0>         0.1302
     50 H17        -0.3366   -4.5927   -1.4920 H         1 <0>         0.1705
     51 H18        -0.9324   -5.0318    2.1828 H         1 <0>         0.3735
     52 H19        -0.3684  -11.1421    0.2006 H         1 <0>         0.1945
     53 H20         1.6883  -11.5424    2.7440 H         1 <0>         0.1097
     54 H21         0.4538  -11.0779    3.9392 H         1 <0>         0.0963
     55 H22         0.0360  -12.1917    2.6151 H         1 <0>         0.1137
@<TRIPOS>BOND
     1    1    2 1
     2    1   34 1
     3    1   35 1
     4    1   36 1
     5    2    3 1
     6    2   37 1
     7    2   38 1
     8    3    4 1
     9    4    9 ar
    10    4    5 ar
    11    5    6 ar
    12    5   39 1
    13    6    7 ar
    14    6   21 1
    15    7    8 ar
    16    7   40 1
    17    8    9 ar
    18    8   20 1
    19    9   10 1
    20   10   11 1
    21   11   12 1
    22   11   41 1
    23   11   42 1
    24   12   13 1
    25   12   43 1
    26   12   44 1
    27   13   14 1
    28   14   19 ar
    29   14   15 ar
    30   15   16 ar
    31   15   45 1
    32   16   17 ar
    33   16   46 1
    34   17   18 ar
    35   17   47 1
    36   18   19 ar
    37   18   48 1
    38   19   49 1
    39   21   22 2
    40   21   50 1
    41   22   28 1
    42   22   23 1
    43   23   24 2
    44   23   25 1
    45   24   51 1
    46   25   32 1
    47   25   26 1
    48   26   27 2
    49   26   30 1
    50   27   28 1
    51   28   29 2
    52   30   31 2
    53   30   52 1
    54   31   32 1
    55   31   33 1
    56   33   53 1
    57   33   54 1
    58   33   55 1
@<TRIPOS>MOLECULE
ZINC09529826
   67    71     0     0     0
SMALL
USER_CHARGES
3-[[4-[4-(2-methoxyphenyl)piperazin-1-yl]carbonylcyclohexyl]methyl]-1H-quinazoline-2,4-dione
@<TRIPOS>ATOM
      1 C1          4.8435   -0.9784    5.8259 C.3       1 <0>         0.0249
      2 O1          4.1338   -1.2647    4.6191 O.3       1 <0>        -0.3056
      3 C2          4.7836   -2.0054    3.6815 C.ar      1 <0>         0.1195
      4 C3          6.0749   -2.4468    3.9181 C.ar      1 <0>        -0.1902
      5 C4          6.7341   -3.2005    2.9643 C.ar      1 <0>        -0.0991
      6 C5          6.1076   -3.5157    1.7728 C.ar      1 <0>        -0.1329
      7 C6          4.8173   -3.0831    1.5309 C.ar      1 <0>        -0.1317
      8 C7          4.1518   -2.3222    2.4809 C.ar      1 <0>         0.0743
      9 N1          2.8469   -1.8788    2.2363 N.pl3     1 <0>        -0.4784
     10 C8          2.8025   -0.4156    2.1135 C.3       1 <0>         0.0453
     11 C9          1.3426    0.0424    2.0283 C.3       1 <0>         0.1098
     12 N2          0.6850   -0.6935    0.9378 N.am      1 <0>        -0.6166
     13 C10         0.7975   -2.1599    0.9210 C.3       1 <0>         0.1167
     14 C11         2.2837   -2.5308    1.0465 C.3       1 <0>         0.0379
     15 C12        -0.0071   -0.0418   -0.0176 C.2       1 <0>         0.5212
     16 O2         -0.6304   -0.6679   -0.8486 O.2       1 <0>        -0.5365
     17 C13        -0.0064    1.4647   -0.0534 C.3       1 <0>        -0.1049
     18 C14        -0.9041    2.0018    1.0632 C.3       1 <0>        -0.1118
     19 C15        -0.9034    3.5313    1.0269 C.3       1 <0>        -0.1042
     20 C16        -1.4320    4.0096   -0.3269 C.3       1 <0>        -0.1023
     21 C17        -0.5344    3.4725   -1.4435 C.3       1 <0>        -0.1092
     22 C18        -0.5351    1.9430   -1.4072 C.3       1 <0>        -0.0972
     23 C19        -1.4314    5.5391   -0.3632 C.3       1 <0>         0.1127
     24 N3         -2.3818    6.0515    0.6269 N.am      1 <0>        -0.5541
     25 C20        -3.6642    6.2696    0.2631 C.2       1 <0>         0.5628
     26 O3         -4.0370    6.0462   -0.8725 O.2       1 <0>        -0.4873
     27 C21        -4.6010    6.7814    1.2794 C.ar      1 <0>        -0.1980
     28 C22        -5.9397    7.0280    0.9838 C.ar      1 <0>        -0.0138
     29 C23        -6.7751    7.5104    1.9693 C.ar      1 <0>        -0.1545
     30 C24        -6.2897    7.7502    3.2458 C.ar      1 <0>        -0.0450
     31 C25        -4.9648    7.5108    3.5514 C.ar      1 <0>        -0.1656
     32 C26        -4.1099    7.0254    2.5737 C.ar      1 <0>         0.1975
     33 N4         -2.7721    6.7710    2.8391 N.am      1 <0>        -0.6462
     34 H1         -2.4191    6.9346    3.7276 H         1 <0>         0.4350
     35 C27        -1.9603    6.3005    1.8766 C.2       1 <0>         0.7044
     36 O4         -0.7943    6.0910    2.1499 O.2       1 <0>        -0.5350
     37 H2          4.2128   -0.3825    6.4856 H         1 <0>         0.1004
     38 H3          5.1081   -1.9122    6.3220 H         1 <0>         0.0550
     39 H4          5.7509   -0.4222    5.5906 H         1 <0>         0.0538
     40 H5          6.5670   -2.2026    4.8480 H         1 <0>         0.1306
     41 H6          7.7408   -3.5441    3.1508 H         1 <0>         0.1252
     42 H7          6.6262   -4.1049    1.0310 H         1 <0>         0.1250
     43 H8          4.3288   -3.3343    0.6011 H         1 <0>         0.1320
     44 H9          3.3328   -0.1100    1.2116 H         1 <0>         0.0444
     45 H10         3.2755    0.0371    2.9850 H         1 <0>         0.1001
     46 H11         1.3059    1.1121    1.8224 H         1 <0>         0.0960
     47 H12         0.8368   -0.1696    2.9703 H         1 <0>         0.0813
     48 H13         0.2403   -2.5795    1.7586 H         1 <0>         0.0768
     49 H14         0.4002   -2.5469   -0.0173 H         1 <0>         0.0989
     50 H15         2.8212   -2.1958    0.1594 H         1 <0>         0.0494
     51 H16         2.3805   -3.6121    1.1442 H         1 <0>         0.0941
     52 H17         1.0101    1.8311    0.0898 H         1 <0>         0.0943
     53 H18        -1.9206    1.6354    0.9201 H         1 <0>         0.0675
     54 H19        -0.5275    1.6611    2.0277 H         1 <0>         0.0700
     55 H20         0.1131    3.8977    1.1700 H         1 <0>         0.0754
     56 H21        -1.5429    3.9139    1.8224 H         1 <0>         0.0587
     57 H22        -2.4486    3.6432   -0.4700 H         1 <0>         0.0774
     58 H23         0.4821    3.8389   -1.3003 H         1 <0>         0.0684
     59 H24        -0.9110    3.8132   -2.4079 H         1 <0>         0.0728
     60 H25         0.1044    1.5604   -2.2026 H         1 <0>         0.0697
     61 H26        -1.5516    1.5766   -1.5503 H         1 <0>         0.0746
     62 H27        -0.4319    5.9076   -0.1321 H         1 <0>         0.1025
     63 H28        -1.7232    5.8791   -1.3569 H         1 <0>         0.1014
     64 H29        -6.3207    6.8422   -0.0095 H         1 <0>         0.1454
     65 H30        -7.8140    7.7029    1.7454 H         1 <0>         0.1382
     66 H31        -6.9544    8.1284    4.0084 H         1 <0>         0.1387
     67 H32        -4.5957    7.7007    4.5484 H         1 <0>         0.1403
@<TRIPOS>BOND
     1    1    2 1
     2    1   37 1
     3    1   38 1
     4    1   39 1
     5    2    3 1
     6    3    8 ar
     7    3    4 ar
     8    4    5 ar
     9    4   40 1
    10    5    6 ar
    11    5   41 1
    12    6    7 ar
    13    6   42 1
    14    7    8 ar
    15    7   43 1
    16    8    9 1
    17    9   14 1
    18    9   10 1
    19   10   11 1
    20   10   44 1
    21   10   45 1
    22   11   12 1
    23   11   46 1
    24   11   47 1
    25   12   13 1
    26   12   15 am
    27   13   14 1
    28   13   48 1
    29   13   49 1
    30   14   50 1
    31   14   51 1
    32   15   16 2
    33   15   17 1
    34   17   22 1
    35   17   18 1
    36   17   52 1
    37   18   19 1
    38   18   53 1
    39   18   54 1
    40   19   20 1
    41   19   55 1
    42   19   56 1
    43   20   21 1
    44   20   23 1
    45   20   57 1
    46   21   22 1
    47   21   58 1
    48   21   59 1
    49   22   60 1
    50   22   61 1
    51   23   24 1
    52   23   62 1
    53   23   63 1
    54   24   35 am
    55   24   25 am
    56   25   26 2
    57   25   27 1
    58   27   32 ar
    59   27   28 ar
    60   28   29 ar
    61   28   64 1
    62   29   30 ar
    63   29   65 1
    64   30   31 ar
    65   30   66 1
    66   31   32 ar
    67   31   67 1
    68   32   33 1
    69   33   34 1
    70   33   35 am
    71   35   36 2
@<TRIPOS>MOLECULE
ZINC16677099
   45    47     0     0     0
SMALL
USER_CHARGES
N-(2,3-dichlorophenyl)-2-methoxy-5-[(4R)-4-methyl-1,1,3-trioxo-1,2-thiazolidin-2-yl]benzenesulfonamide
@<TRIPOS>ATOM
      1 C1          0.1086    7.7658    1.2722 C.3       1 <0>        -0.1600
      2 C2          0.7071    7.2017   -0.0179 C.3       1 <0>        -0.1090
      3 H1          0.4077    7.8219   -0.8628 H         1 <0>         0.1523
      4 C3          2.2550    7.1825    0.0896 C.3       1 <0>        -0.5723
      5 S1          2.4831    5.4406    0.6411 S.o2      1 <0>         2.5354
      6 O1          2.4372    5.3445    2.0581 O.2       1 <0>        -0.9104
      7 O2          3.5052    4.8013   -0.1111 O.2       1 <0>        -0.9225
      8 N1          1.0421    4.7852    0.0957 N.am      1 <0>        -0.8692
      9 C4          0.2238    5.7982   -0.2264 C.2       1 <0>         0.4888
     10 O3         -0.8819    5.5833   -0.6764 O.2       1 <0>        -0.4544
     11 C5          0.7419    3.4200   -0.0014 C.ar      1 <0>         0.1051
     12 C6          1.7651    2.4923   -0.1457 C.ar      1 <0>        -0.0524
     13 C7          1.4685    1.1472   -0.2408 C.ar      1 <0>        -0.1930
     14 C8          0.1486    0.7224   -0.1928 C.ar      1 <0>         0.2271
     15 C9         -0.8741    1.6489   -0.0540 C.ar      1 <0>        -0.7009
     16 C10        -0.5786    2.9943    0.0470 C.ar      1 <0>         0.0110
     17 S2         -2.5505    1.1089    0.0001 S.o2      1 <0>         2.6967
     18 O4         -2.6096    0.0637    0.9610 O.2       1 <0>        -0.9251
     19 O5         -3.3511    2.2789    0.0968 O.2       1 <0>        -0.9313
     20 N2         -2.8913    0.4222   -1.4677 N.pl3     1 <0>        -1.0439
     21 C11        -2.9340    1.2156   -2.6174 C.ar      1 <0>         0.1988
     22 C12        -2.1053    2.3247   -2.7287 C.ar      1 <0>        -0.1613
     23 C13        -2.1456    3.1043   -3.8681 C.ar      1 <0>        -0.0569
     24 C14        -3.0178    2.7890   -4.8937 C.ar      1 <0>        -0.1189
     25 C15        -3.8491    1.6880   -4.7852 C.ar      1 <0>        -0.0014
     26 C16        -3.8096    0.8999   -3.6491 C.ar      1 <0>        -0.0612
     27 Cl1        -4.8519   -0.4817   -3.5128 Cl        1 <0>        -0.0367
     28 Cl2        -4.9418    1.2955   -6.0758 Cl        1 <0>        -0.0384
     29 O6         -0.1428   -0.6023   -0.2875 O.3       1 <0>        -0.3072
     30 C17         0.9592   -1.5001   -0.4347 C.3       1 <0>         0.0211
     31 H2          0.3951    7.1335    2.1125 H         1 <0>         0.0742
     32 H3          0.4822    8.7769    1.4342 H         1 <0>         0.0925
     33 H4         -0.9780    7.7890    1.1888 H         1 <0>         0.0874
     34 H5          2.7245    7.3639   -0.8772 H         1 <0>         0.1627
     35 H6          2.6116    7.8871    0.8409 H         1 <0>         0.1668
     36 H7          2.7925    2.8229   -0.1838 H         1 <0>         0.1607
     37 H8          2.2642    0.4256   -0.3530 H         1 <0>         0.1549
     38 H9         -1.3748    3.7152    0.1596 H         1 <0>         0.1734
     39 H10        -3.0613   -0.5308   -1.5296 H         1 <0>         0.4331
     40 H11        -1.4269    2.5750   -1.9265 H         1 <0>         0.1425
     41 H12        -1.4982    3.9643   -3.9562 H         1 <0>         0.1461
     42 H13        -3.0501    3.4032   -5.7815 H         1 <0>         0.1485
     43 H14         1.6215   -1.4066    0.4260 H         1 <0>         0.0676
     44 H15         0.5885   -2.5231   -0.4985 H         1 <0>         0.1136
     45 H16         1.5084   -1.2553   -1.3439 H         1 <0>         0.0661
@<TRIPOS>BOND
     1    1    2 1
     2    1   31 1
     3    1   32 1
     4    1   33 1
     5    2    3 1
     6    2    9 1
     7    2    4 1
     8    4    5 1
     9    4   34 1
    10    4   35 1
    11    5    6 2
    12    5    7 2
    13    5    8 1
    14    8    9 am
    15    8   11 1
    16    9   10 2
    17   11   16 ar
    18   11   12 ar
    19   12   13 ar
    20   12   36 1
    21   13   14 ar
    22   13   37 1
    23   14   15 ar
    24   14   29 1
    25   15   16 ar
    26   15   17 1
    27   16   38 1
    28   17   18 2
    29   17   19 2
    30   17   20 1
    31   20   21 1
    32   20   39 1
    33   21   26 ar
    34   21   22 ar
    35   22   23 ar
    36   22   40 1
    37   23   24 ar
    38   23   41 1
    39   24   25 ar
    40   24   42 1
    41   25   26 ar
    42   25   28 1
    43   26   27 1
    44   29   30 1
    45   30   43 1
    46   30   44 1
    47   30   45 1
@<TRIPOS>MOLECULE
ZINC34792868
   63    67     0     0     0
SMALL
USER_CHARGES

@<TRIPOS>ATOM
      1 C1         -0.4923    1.4242    0.0290 C.3       1 <0>         0.0640
      2 N1         -0.3080   -0.0291    0.0152 N.am      1 <0>        -0.5261
      3 C2         -1.4162   -0.8213    0.1126 C.2       1 <0>         0.1808
      4 C3         -1.3168   -2.1661    0.1056 C.2       1 <0>        -0.2822
      5 C4          0.0680   -2.7695   -0.0143 C.3       1 <0>         0.2524
      6 H1          0.2344   -3.4046    0.8558 H         1 <0>         0.0975
      7 N2          1.1981   -1.8304   -0.1138 N.am      1 <0>        -0.7073
      8 C5          0.9376   -0.5082   -0.0978 C.2       1 <0>         0.7127
      9 O1          1.8635    0.2748   -0.1837 O.2       1 <0>        -0.5558
     10 C6          0.0871   -3.6497   -1.2374 C.ar      1 <0>        -0.0915
     11 C7         -0.8857   -3.5046   -2.2088 C.ar      1 <0>        -0.0759
     12 C8         -0.8683   -4.3118   -3.3306 C.ar      1 <0>        -0.1131
     13 C9          0.1219   -5.2648   -3.4820 C.ar      1 <0>        -0.1007
     14 C10         1.0949   -5.4108   -2.5116 C.ar      1 <0>        -0.1086
     15 C11         1.0813   -4.5992   -1.3910 C.ar      1 <0>        -0.0255
     16 Cl1         2.3071   -4.7775   -0.1746 Cl        1 <0>        -0.0664
     17 C12        -2.5939   -2.7528    0.2179 C.2       1 <0>         0.5858
     18 O2         -2.8007   -3.9524    0.2378 O.2       1 <0>        -0.5172
     19 N3         -3.5542   -1.8143    0.3007 N.am      1 <0>        -0.6071
     20 C13        -2.8892   -0.5041    0.2410 C.3       1 <0>         0.1453
     21 C14        -4.9942   -2.0530    0.4264 C.3       1 <0>         0.1268
     22 C15        -5.3646   -2.1329    1.8850 C.2       1 <0>         0.4956
     23 O3         -4.5100   -2.0032    2.7357 O.2       1 <0>        -0.5245
     24 N4         -6.6457   -2.3486    2.2441 N.am      1 <0>        -0.6134
     25 C16        -7.6966   -2.5147    1.2286 C.3       1 <0>         0.1106
     26 C17        -8.4785   -3.7947    1.5421 C.3       1 <0>         0.0377
     27 N5         -8.9580   -3.7443    2.9297 N.3       1 <0>        -0.5311
     28 C18        -7.8380   -3.7076    3.8796 C.3       1 <0>         0.0360
     29 C19        -7.0288   -2.4300    3.6617 C.3       1 <0>         0.1188
     30 C20        -9.8558   -4.8708    3.2177 C.3       1 <0>         0.0944
     31 C21       -10.5170   -4.6571    4.5550 C.ar      1 <0>        -0.0814
     32 C22        -9.9181   -5.1334    5.7062 C.ar      1 <0>        -0.1159
     33 C23       -10.5246   -4.9374    6.9328 C.ar      1 <0>        -0.1200
     34 C24       -11.7298   -4.2645    7.0083 C.ar      1 <0>        -0.1183
     35 C25       -12.3282   -3.7873    5.8571 C.ar      1 <0>        -0.1205
     36 C26       -11.7196   -3.9797    4.6310 C.ar      1 <0>        -0.0973
     37 H2          0.4771    1.9143   -0.0608 H         1 <0>         0.1085
     38 H3         -1.1267    1.7180   -0.8073 H         1 <0>         0.0776
     39 H4         -0.9646    1.7217    0.9653 H         1 <0>         0.0781
     40 H5          2.1084   -2.1560   -0.1927 H         1 <0>         0.4337
     41 H6         -1.6596   -2.7606   -2.0909 H         1 <0>         0.1249
     42 H7         -1.6287   -4.1983   -4.0891 H         1 <0>         0.1300
     43 H8          0.1348   -5.8955   -4.3586 H         1 <0>         0.1342
     44 H9          1.8681   -6.1555   -2.6298 H         1 <0>         0.1364
     45 H10        -3.0776    0.0587    1.1552 H         1 <0>         0.1153
     46 H11        -3.2335    0.0565   -0.6281 H         1 <0>         0.1150
     47 H12        -5.5405   -1.2349   -0.0429 H         1 <0>         0.1164
     48 H13        -5.2513   -2.9910   -0.0656 H         1 <0>         0.1200
     49 H14        -8.3703   -1.6583    1.2553 H         1 <0>         0.0839
     50 H15        -7.2421   -2.5959    0.2412 H         1 <0>         0.0886
     51 H16        -9.3295   -3.8760    0.8659 H         1 <0>         0.0922
     52 H17        -7.8274   -4.6594    1.4135 H         1 <0>         0.0428
     53 H18        -8.2245   -3.7256    4.8986 H         1 <0>         0.0944
     54 H19        -7.1958   -4.5734    3.7184 H         1 <0>         0.0395
     55 H20        -6.1331   -2.4553    4.2823 H         1 <0>         0.0956
     56 H21        -7.6371   -1.5653    3.9269 H         1 <0>         0.0767
     57 H22       -10.6183   -4.9354    2.4416 H         1 <0>         0.0868
     58 H23        -9.2812   -5.7968    3.2404 H         1 <0>         0.0451
     59 H24        -8.9765   -5.6591    5.6472 H         1 <0>         0.1179
     60 H25       -10.0570   -5.3102    7.8321 H         1 <0>         0.1218
     61 H26       -12.2039   -4.1119    7.9665 H         1 <0>         0.1214
     62 H27       -13.2699   -3.2619    5.9161 H         1 <0>         0.1223
     63 H28       -12.1853   -3.6036    3.7320 H         1 <0>         0.1224
@<TRIPOS>BOND
     1    1    2 1
     2    1   37 1
     3    1   38 1
     4    1   39 1
     5    2    8 am
     6    2    3 1
     7    3   20 1
     8    3    4 2
     9    4    5 1
    10    4   17 1
    11    5    6 1
    12    5    7 1
    13    5   10 1
    14    7    8 am
    15    7   40 1
    16    8    9 2
    17   10   15 ar
    18   10   11 ar
    19   11   12 ar
    20   11   41 1
    21   12   13 ar
    22   12   42 1
    23   13   14 ar
    24   13   43 1
    25   14   15 ar
    26   14   44 1
    27   15   16 1
    28   17   18 2
    29   17   19 am
    30   19   20 1
    31   19   21 1
    32   20   45 1
    33   20   46 1
    34   21   22 1
    35   21   47 1
    36   21   48 1
    37   22   23 2
    38   22   24 am
    39   24   29 1
    40   24   25 1
    41   25   26 1
    42   25   49 1
    43   25   50 1
    44   26   27 1
    45   26   51 1
    46   26   52 1
    47   27   28 1
    48   27   30 1
    49   28   29 1
    50   28   53 1
    51   28   54 1
    52   29   55 1
    53   29   56 1
    54   30   31 1
    55   30   57 1
    56   30   58 1
    57   31   36 ar
    58   31   32 ar
    59   32   33 ar
    60   32   59 1
    61   33   34 ar
    62   33   60 1
    63   34   35 ar
    64   34   61 1
    65   35   36 ar
    66   35   62 1
    67   36   63 1
@<TRIPOS>MOLECULE
ZINC39851382
   58    61     0     0     0
SMALL
USER_CHARGES

@<TRIPOS>ATOM
      1 C1          0.4094    1.6701   -0.1912 C.3       1 <0>        -0.1662
      2 C2          0.0211    0.1985   -0.0346 C.3       1 <0>         0.0826
      3 N1          0.5912   -0.5772   -1.1389 N.am      1 <0>        -0.4916
      4 C3         -0.0810   -0.6550   -2.3161 C.2       1 <0>         0.4935
      5 C4          0.4439   -1.3926   -3.3901 C.2       1 <0>        -0.2118
      6 C5          1.6750   -2.0527   -3.2387 C.2       1 <0>         0.1318
      7 C6          2.3446   -1.9571   -2.0221 C.2       1 <0>        -0.1764
      8 C7          1.7740   -1.1954   -0.9706 C.2       1 <0>         0.5489
      9 O1          2.3576   -1.1040    0.0951 O.2       1 <0>        -0.5219
     10 C8          3.6010   -2.6183   -1.8353 C.1       1 <0>         0.2794
     11 N2          4.5977   -3.1428   -1.6872 N.1       1 <0>        -0.4146
     12 C9          2.2607   -2.8513   -4.3746 C.3       1 <0>        -0.1404
     13 C10        -0.2861   -1.4735   -4.6566 C.2       1 <0>         0.1340
     14 C11         0.2311   -0.9012   -5.7778 C.2       1 <0>        -0.2372
     15 C12         1.4568   -0.1890   -5.9517 C.2       1 <0>         0.5354
     16 O2          2.2195   -0.0159   -5.0181 O.2       1 <0>        -0.4476
     17 N3          1.7386    0.2760   -7.1563 N.am      1 <0>        -0.5184
     18 C13         0.8919    0.0836   -8.1920 C.2       1 <0>         0.2809
     19 S1          1.0533    0.5930   -9.8185 S.2       1 <0>        -0.3136
     20 S2         -0.4350   -0.8428   -7.4356 S.3       1 <0>         0.0629
     21 C14         2.9872    1.0114   -7.3720 C.3       1 <0>         0.1127
     22 C15         3.8330    0.2842   -8.4192 C.3       1 <0>        -0.1814
     23 C16         2.6683    2.4241   -7.8655 C.3       1 <0>        -0.1809
     24 N4         -1.2759   -0.0119   -2.4568 N.pl3     1 <0>        -0.7830
     25 C17        -2.5292   -0.7408   -2.2468 C.3       1 <0>         0.1835
     26 C18        -3.6937    0.1559   -2.5801 C.ar      1 <0>        -0.1052
     27 C19        -4.2545    0.9518   -1.5986 C.ar      1 <0>        -0.0852
     28 C20        -5.3224    1.7763   -1.8996 C.ar      1 <0>        -0.1025
     29 C21        -5.8339    1.8064   -3.1868 C.ar      1 <0>         0.0461
     30 C22        -5.2690    1.0047   -4.1756 C.ar      1 <0>         0.0326
     31 C23        -4.1952    0.1850   -3.8680 C.ar      1 <0>        -0.0781
     32 O3         -5.9433    1.2128   -5.3440 O.3       1 <0>        -0.3051
     33 C24        -7.1825    1.8411   -4.9661 C.3       1 <0>         0.2126
     34 O4         -6.8620    2.5169   -3.7358 O.3       1 <0>        -0.3069
     35 H1          1.4897    1.7736   -0.0891 H         1 <0>         0.0665
     36 H2          0.1019    2.0242   -1.1751 H         1 <0>         0.0582
     37 H3         -0.0866    2.2607    0.5790 H         1 <0>         0.0811
     38 H4          0.4063   -0.1801    0.9122 H         1 <0>         0.1091
     39 H5         -1.0649    0.1058   -0.0481 H         1 <0>         0.0982
     40 H6          2.9615   -2.2300   -4.9321 H         1 <0>         0.0943
     41 H7          2.7836   -3.7206   -3.9758 H         1 <0>         0.0855
     42 H8          1.4606   -3.1810   -5.0374 H         1 <0>         0.0809
     43 H9         -1.2349   -1.9873   -4.7012 H         1 <0>         0.1605
     44 H10         3.5407    1.0703   -6.4349 H         1 <0>         0.1159
     45 H11         3.2795    0.2253   -9.3563 H         1 <0>         0.0939
     46 H12         4.7620    0.8313   -8.5796 H         1 <0>         0.0835
     47 H13         4.0602   -0.7222   -8.0676 H         1 <0>         0.0581
     48 H14         2.0657    2.9422   -7.1195 H         1 <0>         0.0570
     49 H15         3.5972    2.9713   -8.0260 H         1 <0>         0.0832
     50 H16         2.1147    2.3653   -8.8027 H         1 <0>         0.0939
     51 H17        -1.2956    0.9280   -2.6959 H         1 <0>         0.4169
     52 H18        -2.5510   -1.6194   -2.8916 H         1 <0>         0.0773
     53 H19        -2.5977   -1.0530   -1.2048 H         1 <0>         0.0749
     54 H20        -3.8576    0.9290   -0.5944 H         1 <0>         0.1408
     55 H21        -5.7586    2.3970   -1.1308 H         1 <0>         0.1394
     56 H22        -3.7522   -0.4344   -4.6339 H         1 <0>         0.1379
     57 H23        -7.4963    2.5569   -5.7258 H         1 <0>         0.1354
     58 H24        -7.9570    1.0920   -4.8011 H         1 <0>         0.0886
@<TRIPOS>BOND
     1    1    2 1
     2    1   35 1
     3    1   36 1
     4    1   37 1
     5    2    3 1
     6    2   38 1
     7    2   39 1
     8    3    8 am
     9    3    4 1
    10    4    5 2
    11    4   24 1
    12    5    6 1
    13    5   13 1
    14    6    7 2
    15    6   12 1
    16    7    8 1
    17    7   10 1
    18    8    9 2
    19   10   11 3
    20   12   40 1
    21   12   41 1
    22   12   42 1
    23   13   14 2
    24   13   43 1
    25   14   20 1
    26   14   15 1
    27   15   16 2
    28   15   17 am
    29   17   18 1
    30   17   21 1
    31   18   19 2
    32   18   20 1
    33   21   22 1
    34   21   23 1
    35   21   44 1
    36   22   45 1
    37   22   46 1
    38   22   47 1
    39   23   48 1
    40   23   49 1
    41   23   50 1
    42   24   25 1
    43   24   51 1
    44   25   26 1
    45   25   52 1
    46   25   53 1
    47   26   31 ar
    48   26   27 ar
    49   27   28 ar
    50   27   54 1
    51   28   29 ar
    52   28   55 1
    53   29   34 1
    54   29   30 ar
    55   30   31 ar
    56   30   32 1
    57   31   56 1
    58   32   33 1
    59   33   34 1
    60   33   57 1
    61   33   58 1
@<TRIPOS>MOLECULE
ZINC64890189
   56    59     0     0     0
SMALL
USER_CHARGES

@<TRIPOS>ATOM
      1 C1         -0.0187    1.5258    0.0104 C.3       1 <0>        -0.1481
      2 C2          0.0021   -0.0041    0.0020 C.3       1 <0>        -0.1471
      3 C3          0.7182   -0.4975   -1.2568 C.3       1 <0>         0.0798
      4 H1          1.7102   -0.0488   -1.3092 H         1 <0>         0.1570
      5 C4          0.8487   -1.9988   -1.2040 C.2       1 <0>         0.4957
      6 O1          1.8485   -2.5072   -0.7423 O.2       1 <0>        -0.4967
      7 N1         -0.1516   -2.7744   -1.6722 N.am      1 <0>        -0.6589
      8 C5         -1.2408   -2.1711   -2.3156 C.ar      1 <0>         0.0768
      9 C6         -2.3821   -2.9023   -2.6036 C.ar      1 <0>        -0.0255
     10 C7         -3.4532   -2.2891   -3.2269 C.ar      1 <0>        -0.6741
     11 C8         -3.3883   -0.9492   -3.5628 C.ar      1 <0>        -0.0084
     12 C9         -2.2502   -0.2153   -3.2825 C.ar      1 <0>        -0.1266
     13 C10        -1.1716   -0.8239   -2.6638 C.ar      1 <0>         0.1392
     14 O2         -0.0357   -0.1212   -2.4113 O.3       1 <0>        -0.2901
     15 S1         -4.9047   -3.2177   -3.5949 S.o2      1 <0>         2.6927
     16 O3         -5.5523   -2.5503   -4.6694 O.2       1 <0>        -0.9453
     17 O4         -4.5066   -4.5795   -3.6733 O.2       1 <0>        -0.9474
     18 N2         -5.9106   -3.0932   -2.2854 N.pl3     1 <0>        -0.9956
     19 C11        -5.8297   -4.0642   -1.1851 C.3       1 <0>         0.1051
     20 C12        -5.6115   -3.3008    0.1271 C.3       1 <0>         0.0973
     21 N3         -6.6008   -2.2171    0.2101 N.am      1 <0>        -0.6111
     22 C13        -6.6818   -1.2462   -0.8902 C.3       1 <0>         0.0879
     23 C14        -6.8961   -2.0063   -2.1998 C.3       1 <0>         0.1025
     24 C15        -7.4195   -2.1159    1.2759 C.2       1 <0>         0.5246
     25 O5         -7.3437   -2.9233    2.1776 O.2       1 <0>        -0.5225
     26 C16        -8.4291   -0.9993    1.3471 C.3       1 <0>        -0.1083
     27 C17        -9.2127   -1.1116    2.6295 C.ar      1 <0>        -0.0979
     28 C18       -10.3760   -1.8615    2.6670 C.ar      1 <0>         0.1262
     29 C19       -11.0949   -1.9638    3.8457 C.ar      1 <0>        -0.1469
     30 C20       -10.6513   -1.3176    4.9842 C.ar      1 <0>        -0.0745
     31 C21        -9.4901   -0.5691    4.9468 C.ar      1 <0>        -0.1189
     32 C22        -8.7672   -0.4704    3.7709 C.ar      1 <0>         0.0039
     33 Cl1        -7.3050    0.4643    3.7268 Cl        1 <0>        -0.0538
     34 F1        -10.8095   -2.4926    1.5539 F         1 <0>        -0.1295
     35 H2          1.0039    1.9031    0.0027 H         1 <0>         0.0633
     36 H3         -0.5459    1.8868   -0.8726 H         1 <0>         0.0645
     37 H4         -0.5289    1.8773    0.9072 H         1 <0>         0.0650
     38 H5          0.5293   -0.3651    0.8851 H         1 <0>         0.0906
     39 H6         -1.0205   -0.3814    0.0098 H         1 <0>         0.0727
     40 H7         -0.1170   -3.7378   -1.5649 H         1 <0>         0.4202
     41 H8         -2.4347   -3.9489   -2.3422 H         1 <0>         0.1501
     42 H9         -4.2294   -0.4744   -4.0460 H         1 <0>         0.1529
     43 H10        -2.2030    0.8311   -3.5458 H         1 <0>         0.1523
     44 H11        -6.7590   -4.6311   -1.1284 H         1 <0>         0.0859
     45 H12        -4.9942   -4.7428   -1.3568 H         1 <0>         0.1049
     46 H13        -5.7402   -3.9790    0.9706 H         1 <0>         0.1079
     47 H14        -4.6061   -2.8802    0.1428 H         1 <0>         0.0732
     48 H15        -7.5173   -0.5676   -0.7185 H         1 <0>         0.1008
     49 H16        -5.7525   -0.6793   -0.9469 H         1 <0>         0.0802
     50 H17        -6.7647   -1.3263   -3.0415 H         1 <0>         0.1084
     51 H18        -7.9031   -2.4233   -2.2170 H         1 <0>         0.0863
     52 H19        -7.9124   -0.0400    1.3199 H         1 <0>         0.1143
     53 H20        -9.1093   -1.0698    0.4983 H         1 <0>         0.1126
     54 H21       -12.0026   -2.5483    3.8756 H         1 <0>         0.1444
     55 H22       -11.2126   -1.3974    5.9034 H         1 <0>         0.1453
     56 H23        -9.1445   -0.0642    5.8368 H         1 <0>         0.1426
@<TRIPOS>BOND
     1    1    2 1
     2    1   35 1
     3    1   36 1
     4    1   37 1
     5    2    3 1
     6    2   38 1
     7    2   39 1
     8    3    4 1
     9    3   14 1
    10    3    5 1
    11    5    6 2
    12    5    7 am
    13    7    8 1
    14    7   40 1
    15    8   13 ar
    16    8    9 ar
    17    9   10 ar
    18    9   41 1
    19   10   11 ar
    20   10   15 1
    21   11   12 ar
    22   11   42 1
    23   12   13 ar
    24   12   43 1
    25   13   14 1
    26   15   16 2
    27   15   17 2
    28   15   18 1
    29   18   23 1
    30   18   19 1
    31   19   20 1
    32   19   44 1
    33   19   45 1
    34   20   21 1
    35   20   46 1
    36   20   47 1
    37   21   22 1
    38   21   24 am
    39   22   23 1
    40   22   48 1
    41   22   49 1
    42   23   50 1
    43   23   51 1
    44   24   25 2
    45   24   26 1
    46   26   27 1
    47   26   52 1
    48   26   53 1
    49   27   32 ar
    50   27   28 ar
    51   28   29 ar
    52   28   34 1
    53   29   30 ar
    54   29   54 1
    55   30   31 ar
    56   30   55 1
    57   31   32 ar
    58   31   56 1
    59   32   33 1
@<TRIPOS>MOLECULE
ZINC08910595
   52    55     0     0     0
SMALL
USER_CHARGES
2-(4-ethoxyphenyl)-N-[7-(4-nitrophenyl)-3,3-dioxo-3$l^{6}-thia-6,7-diazabicyclo[3.3.0]octa-5,8-dien-8-yl]-acetamide
@<TRIPOS>ATOM
      1 C1         -1.0034   -8.1079   -3.3545 C.3       1 <0>        -0.1538
      2 C2         -1.1736   -6.6084   -3.1031 C.3       1 <0>         0.0539
      3 O1         -1.0090   -6.3373   -1.7097 O.3       1 <0>        -0.3152
      4 C3         -1.1301   -5.0427   -1.3145 C.ar      1 <0>         0.1393
      5 C4         -0.9824   -4.7080    0.0237 C.ar      1 <0>        -0.1503
      6 C5         -1.1055   -3.3912    0.4228 C.ar      1 <0>        -0.0612
      7 C6         -1.3758   -2.4072   -0.5101 C.ar      1 <0>        -0.1190
      8 C7         -1.5291   -2.7389   -1.8436 C.ar      1 <0>        -0.0599
      9 C8         -1.4013   -4.0535   -2.2486 C.ar      1 <0>        -0.2074
     10 C9         -1.5096   -0.9715   -0.0720 C.3       1 <0>        -0.0880
     11 C10        -0.1608   -0.3015   -0.1276 C.2       1 <0>         0.5158
     12 O2          0.8132   -0.9282   -0.4877 O.2       1 <0>        -0.4757
     13 N1         -0.0370    0.9940    0.2227 N.am      1 <0>        -0.6590
     14 C11         1.1950    1.6351    0.0983 C.2       1 <0>         0.3486
     15 C12         2.4327    1.0361    0.1566 C.2       1 <0>        -0.2282
     16 C13         3.3894    2.0229   -0.0129 C.2       1 <0>         0.0994
     17 N2          2.7676    3.1828   -0.1692 N.2       1 <0>        -0.2443
     18 N3          1.3908    2.9610   -0.1078 N.pl3     1 <0>        -0.3297
     19 C14         0.3904    3.9345   -0.2336 C.ar      1 <0>         0.2045
     20 C15        -0.8082    3.6232   -0.8613 C.ar      1 <0>        -0.1405
     21 C16        -1.7942    4.5832   -0.9790 C.ar      1 <0>        -0.0254
     22 C17        -1.5845    5.8563   -0.4817 C.ar      1 <0>        -0.0461
     23 C18        -0.3896    6.1711    0.1389 C.ar      1 <0>        -0.0274
     24 C19         0.5982    5.2139    0.2643 C.ar      1 <0>        -0.1047
     25 N4         -2.6411    6.8845   -0.6145 N.pl3     1 <0>         0.0252
     26 O3         -2.4575    8.0064   -0.1773 O.2       1 <0>        -0.1486
     27 O4         -3.6941    6.6086   -1.1609 O.3       1 <0>        -0.1502
     28 C20         4.8500    1.5761    0.0173 C.3       1 <0>        -0.5035
     29 S1          4.7150   -0.1030    0.7571 S.o2      1 <0>         2.3800
     30 O5          4.8695   -0.0107    2.1666 O.2       1 <0>        -0.9213
     31 O6          5.5191   -1.0113    0.0170 O.2       1 <0>        -0.9206
     32 C21         2.9428   -0.3897    0.3550 C.3       1 <0>        -0.4535
     33 H1         -0.0073   -8.4185   -3.0391 H         1 <0>         0.0676
     34 H2         -1.7527   -8.6590   -2.7862 H         1 <0>         0.0671
     35 H3         -1.1289   -8.3147   -4.4173 H         1 <0>         0.0798
     36 H4         -2.1697   -6.2978   -3.4185 H         1 <0>         0.0626
     37 H5         -0.4242   -6.0573   -3.6714 H         1 <0>         0.0631
     38 H6         -0.7716   -5.4763    0.7529 H         1 <0>         0.1330
     39 H7         -0.9902   -3.1301    1.4644 H         1 <0>         0.1286
     40 H8         -1.7449   -1.9692   -2.5697 H         1 <0>         0.1226
     41 H9         -1.5167   -4.3115   -3.2910 H         1 <0>         0.1289
     42 H10        -1.8905   -0.9372    0.9487 H         1 <0>         0.1118
     43 H11        -2.2010   -0.4521   -0.7355 H         1 <0>         0.1104
     44 H12        -0.8039    1.4793    0.5650 H         1 <0>         0.4175
     45 H13        -0.9709    2.6303   -1.2538 H         1 <0>         0.1535
     46 H14        -2.7283    4.3405   -1.4639 H         1 <0>         0.1684
     47 H15        -0.2287    7.1663    0.5263 H         1 <0>         0.1684
     48 H16         1.5314    5.4604    0.7489 H         1 <0>         0.1633
     49 H17         5.4460    2.2340    0.6497 H         1 <0>         0.1567
     50 H18         5.2640    1.5263   -0.9898 H         1 <0>         0.1616
     51 H19         2.4286   -0.8760    1.1840 H         1 <0>         0.1394
     52 H20         2.8399   -0.9716   -0.5609 H         1 <0>         0.1623
@<TRIPOS>BOND
     1    1    2 1
     2    1   33 1
     3    1   34 1
     4    1   35 1
     5    2    3 1
     6    2   36 1
     7    2   37 1
     8    3    4 1
     9    4    9 ar
    10    4    5 ar
    11    5    6 ar
    12    5   38 1
    13    6    7 ar
    14    6   39 1
    15    7    8 ar
    16    7   10 1
    17    8    9 ar
    18    8   40 1
    19    9   41 1
    20   10   11 1
    21   10   42 1
    22   10   43 1
    23   11   12 2
    24   11   13 am
    25   13   14 1
    26   13   44 1
    27   14   18 1
    28   14   15 2
    29   15   32 1
    30   15   16 1
    31   16   17 2
    32   16   28 1
    33   17   18 1
    34   18   19 1
    35   19   24 ar
    36   19   20 ar
    37   20   21 ar
    38   20   45 1
    39   21   22 ar
    40   21   46 1
    41   22   23 ar
    42   22   25 1
    43   23   24 ar
    44   23   47 1
    45   24   48 1
    46   25   26 2
    47   25   27 1
    48   28   29 1
    49   28   49 1
    50   28   50 1
    51   29   30 2
    52   29   31 2
    53   29   32 1
    54   32   51 1
    55   32   52 1
@<TRIPOS>MOLECULE
ZINC15784698
   62    65     0     0     0
SMALL
USER_CHARGES
4-(1-methylindol-5-yl)sulfonyl-N-(3,4,5-trimethoxyphenyl)piperazine-1-carboxamide
@<TRIPOS>ATOM
      1 C1          7.1356   12.5938   -3.0945 C.3       1 <0>         0.0734
      2 N1          6.3543   11.5983   -3.8324 N.pl3     1 <0>        -0.4850
      3 C2          6.8817   10.5578   -4.5477 C.2       1 <0>         0.0494
      4 C3          5.8945    9.8352   -5.1002 C.2       1 <0>        -0.1898
      5 C4          4.6314   10.4643   -4.7067 C.ar      1 <0>        -0.1326
      6 C5          4.9798   11.5699   -3.9092 C.ar      1 <0>         0.1404
      7 C6          3.9744   12.3733   -3.3816 C.ar      1 <0>        -0.1403
      8 C7          2.6545   12.0818   -3.6490 C.ar      1 <0>        -0.0159
      9 C8          2.3159   10.9870   -4.4319 C.ar      1 <0>        -0.7013
     10 C9          3.2876   10.1844   -4.9604 C.ar      1 <0>         0.0437
     11 S1          0.6199   10.6333   -4.7531 S.o2      1 <0>         2.6930
     12 O1          0.5827    9.8850   -5.9606 O.2       1 <0>        -0.9537
     13 O2         -0.0874   11.8553   -4.5921 O.2       1 <0>        -0.9513
     14 N2          0.0950    9.6208   -3.5525 N.pl3     1 <0>        -0.9975
     15 C10        -0.4825   10.1642   -2.3151 C.3       1 <0>         0.1058
     16 C11         0.2984    9.6009   -1.1212 C.3       1 <0>         0.1132
     17 N3          0.4020    8.1429   -1.2738 N.am      1 <0>        -0.6205
     18 C12         0.9846    7.5996   -2.5088 C.3       1 <0>         0.0921
     19 C13         0.1987    8.1628   -3.7050 C.3       1 <0>         0.1064
     20 C14        -0.0244    7.3188   -0.2962 C.2       1 <0>         0.7100
     21 O3         -0.5870    7.7745    0.6807 O.2       1 <0>        -0.5633
     22 N4          0.1729    5.9897   -0.4014 N.am      1 <0>        -0.6845
     23 C15        -0.3657    5.1233    0.5592 C.ar      1 <0>         0.2406
     24 C16         0.3125    3.9623    0.9040 C.ar      1 <0>        -0.2638
     25 C17        -0.2194    3.1047    1.8541 C.ar      1 <0>         0.1703
     26 C18        -1.4292    3.4106    2.4660 C.ar      1 <0>         0.0115
     27 C19        -2.1105    4.5701    2.1157 C.ar      1 <0>         0.1703
     28 C20        -1.5772    5.4263    1.1650 C.ar      1 <0>        -0.2346
     29 O4         -3.2973    4.8674    2.7094 O.3       1 <0>        -0.2994
     30 C21        -3.9395    6.0783    2.3052 C.3       1 <0>         0.0248
     31 O5         -1.9493    2.5719    3.4042 O.3       1 <0>        -0.3106
     32 C22        -2.8142    1.5340    2.9385 C.3       1 <0>         0.0343
     33 O6          0.4451    1.9672    2.1917 O.3       1 <0>        -0.2990
     34 C23         1.6859    1.7194    1.5274 C.3       1 <0>         0.0243
     35 H1          7.2948   12.2468   -2.0735 H         1 <0>         0.0740
     36 H2          8.0989   12.7356   -3.5844 H         1 <0>         0.0878
     37 H3          6.5944   13.5398   -3.0764 H         1 <0>         0.0838
     38 H4          7.9361   10.3488   -4.6522 H         1 <0>         0.1741
     39 H5          6.0096    8.9564   -5.7173 H         1 <0>         0.1541
     40 H6          4.2276   13.2251   -2.7679 H         1 <0>         0.1287
     41 H7          1.8754   12.7092   -3.2418 H         1 <0>         0.1415
     42 H8          3.0168    9.3367   -5.5724 H         1 <0>         0.1395
     43 H9         -1.5291    9.8695   -2.2396 H         1 <0>         0.0842
     44 H10        -0.4056   11.2515   -2.3222 H         1 <0>         0.1072
     45 H11        -0.2283    9.8354   -0.1962 H         1 <0>         0.1103
     46 H12         1.2966   10.0378   -1.0947 H         1 <0>         0.0757
     47 H13         2.0305    7.8976   -2.5819 H         1 <0>         0.0824
     48 H14         0.9113    6.5121   -2.5004 H         1 <0>         0.0891
     49 H15        -0.7995    7.7256   -3.7285 H         1 <0>         0.0843
     50 H16         0.7226    7.9283   -4.6316 H         1 <0>         0.1068
     51 H17         0.6876    5.6330   -1.1421 H         1 <0>         0.4079
     52 H18         1.2551    3.7274    0.4321 H         1 <0>         0.1375
     53 H19        -2.1043    6.3297    0.8958 H         1 <0>         0.1510
     54 H20        -4.8740    6.1946    2.8541 H         1 <0>         0.1032
     55 H21        -4.1485    6.0394    1.2362 H         1 <0>         0.0553
     56 H22        -3.2859    6.9245    2.5172 H         1 <0>         0.0633
     57 H23        -2.2719    0.8943    2.2423 H         1 <0>         0.0434
     58 H24        -3.1578    0.9401    3.7854 H         1 <0>         0.0918
     59 H25        -3.6726    1.9760    2.4327 H         1 <0>         0.0437
     60 H26         1.5155    1.6511    0.4530 H         1 <0>         0.0570
     61 H27         2.3782    2.5355    1.7344 H         1 <0>         0.0578
     62 H28         2.1103    0.7825    1.8883 H         1 <0>         0.1038
@<TRIPOS>BOND
     1    1    2 1
     2    1   35 1
     3    1   36 1
     4    1   37 1
     5    2    6 1
     6    2    3 1
     7    3    4 2
     8    3   38 1
     9    4    5 1
    10    4   39 1
    11    5   10 ar
    12    5    6 ar
    13    6    7 ar
    14    7    8 ar
    15    7   40 1
    16    8    9 ar
    17    8   41 1
    18    9   10 ar
    19    9   11 1
    20   10   42 1
    21   11   12 2
    22   11   13 2
    23   11   14 1
    24   14   19 1
    25   14   15 1
    26   15   16 1
    27   15   43 1
    28   15   44 1
    29   16   17 1
    30   16   45 1
    31   16   46 1
    32   17   18 1
    33   17   20 am
    34   18   19 1
    35   18   47 1
    36   18   48 1
    37   19   49 1
    38   19   50 1
    39   20   21 2
    40   20   22 am
    41   22   23 1
    42   22   51 1
    43   23   28 ar
    44   23   24 ar
    45   24   25 ar
    46   24   52 1
    47   25   26 ar
    48   25   33 1
    49   26   27 ar
    50   26   31 1
    51   27   28 ar
    52   27   29 1
    53   28   53 1
    54   29   30 1
    55   30   54 1
    56   30   55 1
    57   30   56 1
    58   31   32 1
    59   32   57 1
    60   32   58 1
    61   32   59 1
    62   33   34 1
    63   34   60 1
    64   34   61 1
    65   34   62 1
@<TRIPOS>MOLECULE
ZINC32699171
   46    50     0     0     0
SMALL
USER_CHARGES
N-[3-cyano-4,5-bis(2-furyl)-2-furyl]-2-[[5-(3-pyridyl)-1,3,4-oxadiazol-2-yl]sulfanyl]acetamide
@<TRIPOS>ATOM
      1 C1          9.4157    4.3693   -0.0606 C.ar      1 <0>        -0.1703
      2 C2          8.0356    4.2669   -0.0549 C.ar      1 <0>        -0.0213
      3 C3          7.4653    2.9883   -0.0511 C.ar      1 <0>        -0.0832
      4 C4          8.3071    1.8746   -0.0648 C.ar      1 <0>         0.1439
      5 N1          9.6152    2.0244   -0.0755 N.ar      1 <0>        -0.4795
      6 C5         10.1802    3.2167   -0.0738 C.ar      1 <0>         0.1257
      7 C6          5.9974    2.8205   -0.0390 C.2       1 <0>         0.2218
      8 N2          5.1066    3.7818   -0.0253 N.2       1 <0>        -0.2597
      9 N3          3.9259    3.2709   -0.0174 N.2       1 <0>        -0.2839
     10 C7          4.0166    1.9609   -0.0258 C.2       1 <0>         0.1196
     11 O1          5.3262    1.6474   -0.0345 O.3       1 <0>        -0.1955
     12 S1          2.6718    0.8224   -0.0190 S.3       1 <0>         0.1690
     13 C8          1.2803    1.9798    0.0005 C.3       1 <0>        -0.1712
     14 C9         -0.0144    1.2086    0.0087 C.2       1 <0>         0.5363
     15 O2          0.0021   -0.0041    0.0020 O.2       1 <0>        -0.4713
     16 N4         -1.1906    1.8665    0.0178 N.am      1 <0>        -0.6350
     17 C10        -2.3784    1.1591    0.0196 C.2       1 <0>         0.3343
     18 C11        -3.6465    1.7152    0.0342 C.2       1 <0>        -0.1352
     19 C12        -4.5812    0.5722    0.0266 C.2       1 <0>        -0.0267
     20 C13        -3.7821   -0.5591    0.0173 C.2       1 <0>         0.1043
     21 O3         -2.4896   -0.1759    0.0134 O.3       1 <0>        -0.1276
     22 C14        -4.2623   -1.9440    0.0128 C.2       1 <0>         0.0350
     23 C15        -3.4811   -3.0643    0.0036 C.2       1 <0>        -0.1534
     24 C16        -4.3556   -4.1675    0.0034 C.2       1 <0>        -0.2131
     25 C17        -5.6117   -3.6781    0.0123 C.2       1 <0>        -0.0114
     26 O4         -5.5525   -2.3351    0.0231 O.3       1 <0>        -0.1500
     27 C18        -6.0531    0.6241    0.0335 C.2       1 <0>         0.0381
     28 C19        -6.8317    1.1130    1.0391 C.2       1 <0>        -0.1700
     29 C20        -8.1700    0.9659    0.6239 C.2       1 <0>        -0.2129
     30 C21        -8.1448    0.4016   -0.5995 C.2       1 <0>        -0.0245
     31 O5         -6.8643    0.2016   -0.9559 O.3       1 <0>        -0.1594
     32 C22        -3.9813    3.1074    0.0505 C.1       1 <0>         0.2785
     33 N5         -4.2469    4.2119    0.0634 N.1       1 <0>        -0.3961
     34 H1          9.8908    5.3392   -0.0594 H         1 <0>         0.1509
     35 H2          7.4146    5.1504   -0.0490 H         1 <0>         0.1526
     36 H3          7.8818    0.8819   -0.0662 H         1 <0>         0.1662
     37 H4         11.2574    3.2940   -0.0826 H         1 <0>         0.1679
     38 H5          1.3386    2.6081    0.9015 H         1 <0>         0.1461
     39 H6          1.3214    2.6178   -0.8946 H         1 <0>         0.1461
     40 H7         -1.2055    2.9664    0.0238 H         1 <0>         0.4735
     41 H8         -2.4016   -3.0973   -0.0019 H         1 <0>         0.1597
     42 H9         -4.0732   -5.2099   -0.0031 H         1 <0>         0.1583
     43 H10        -6.5164   -4.2679    0.0144 H         1 <0>         0.2131
     44 H11        -6.4893    1.5326    1.9735 H         1 <0>         0.1502
     45 H12        -9.0500    1.2516    1.1809 H         1 <0>         0.1529
     46 H13        -9.0102    0.1548   -1.1967 H         1 <0>         0.2070
@<TRIPOS>BOND
     1    1    6 ar
     2    1    2 ar
     3    1   34 1
     4    2    3 ar
     5    2   35 1
     6    3    4 ar
     7    3    7 1
     8    4    5 ar
     9    4   36 1
    10    5    6 ar
    11    6   37 1
    12    7   11 1
    13    7    8 2
    14    8    9 1
    15    9   10 2
    16   10   11 1
    17   10   12 1
    18   12   13 1
    19   13   14 1
    20   13   38 1
    21   13   39 1
    22   14   15 2
    23   14   16 am
    24   16   17 1
    25   16   40 1
    26   17   21 1
    27   17   18 2
    28   18   19 1
    29   18   32 1
    30   19   20 2
    31   19   27 1
    32   20   21 1
    33   20   22 1
    34   22   26 1
    35   22   23 2
    36   23   24 1
    37   23   41 1
    38   24   25 2
    39   24   42 1
    40   25   26 1
    41   25   43 1
    42   27   31 1
    43   27   28 2
    44   28   29 1
    45   28   44 1
    46   29   30 2
    47   29   45 1
    48   30   31 1
    49   30   46 1
    50   32   33 3
@<TRIPOS>MOLECULE
ZINC39893461
   56    58     0     0     0
SMALL
USER_CHARGES

@<TRIPOS>ATOM
      1 C1         -0.1387    1.4882    0.0061 C.3       1 <0>        -0.1467
      2 C2         -0.0096   -0.0132    0.0020 C.2       1 <0>         0.1247
      3 C3          0.0412   -0.7152   -1.1939 C.2       1 <0>        -0.1767
      4 C4          0.1667   -2.1735   -1.1709 C.2       1 <0>         0.5738
      5 O1          0.2113   -2.7897   -2.2200 O.2       1 <0>        -0.4946
      6 N1          0.2338   -2.8407   -0.0057 N.am      1 <0>        -0.5478
      7 C5          0.1873   -2.1958    1.1738 C.2       1 <0>         0.5821
      8 O2          0.2500   -2.8276    2.2121 O.2       1 <0>        -0.5316
      9 C6          0.0678   -0.7324    1.2153 C.2       1 <0>        -0.3216
     10 C7          0.0260   -0.0632    2.4348 C.2       1 <0>         0.2940
     11 N2         -0.0552   -0.7609    3.5828 N.pl3     1 <0>        -0.5925
     12 C8         -0.1580   -0.0885    4.8032 C.ar      1 <0>         0.1839
     13 C9         -0.1823    1.3003    4.8330 C.ar      1 <0>        -0.1625
     14 C10        -0.2845    1.9617    6.0410 C.ar      1 <0>        -0.0150
     15 C11        -0.3621    1.2433    7.2201 C.ar      1 <0>        -0.0682
     16 C12        -0.3377   -0.1392    7.1941 C.ar      1 <0>        -0.0162
     17 C13        -0.2419   -0.8071    5.9892 C.ar      1 <0>        -0.1405
     18 N3         -0.4710    1.9557    8.5130 N.pl3     1 <0>         0.0331
     19 O3         -0.4920    3.1643    8.5374 O.2       1 <0>        -0.1533
     20 O4         -0.5390    1.3290    9.5447 O.3       1 <0>        -0.1534
     21 C14         0.3596   -4.3002   -0.0209 C.3       1 <0>         0.1037
     22 C15         1.8405   -4.6843   -0.0380 C.3       1 <0>        -0.0866
     23 C16         1.9699   -6.1857   -0.0536 C.ar      1 <0>        -0.0809
     24 C17         2.0342   -6.8848    1.1374 C.ar      1 <0>        -0.1079
     25 C18         2.1529   -8.2621    1.1284 C.ar      1 <0>        -0.1713
     26 C19         2.2073   -8.9449   -0.0762 C.ar      1 <0>         0.0993
     27 C20         2.1422   -8.2412   -1.2749 C.ar      1 <0>         0.1021
     28 C21         2.0184   -6.8612   -1.2587 C.ar      1 <0>        -0.1640
     29 O5          2.1952   -8.9069   -2.4596 O.3       1 <0>        -0.3062
     30 C22         2.1229   -8.1195   -3.6499 C.3       1 <0>         0.0250
     31 O6          2.3246  -10.2998   -0.0868 O.3       1 <0>        -0.3065
     32 C23         2.3863  -10.9556    1.1813 C.3       1 <0>         0.0259
     33 C24        -0.0292   -0.0176   -2.4425 C.1       1 <0>         0.2748
     34 N4         -0.0851    0.5359   -3.4330 N.1       1 <0>        -0.4103
     35 H1          0.8540    1.9383   -0.0060 H         1 <0>         0.1035
     36 H2         -0.6933    1.8077   -0.8762 H         1 <0>         0.0897
     37 H3         -0.6701    1.8047    0.9036 H         1 <0>         0.0844
     38 H4          0.0587    1.0160    2.4600 H         1 <0>         0.1837
     39 H5         -0.0424   -1.7306    3.5629 H         1 <0>         0.4396
     40 H6         -0.1210    1.8620    3.9126 H         1 <0>         0.1544
     41 H7         -0.3034    3.0413    6.0649 H         1 <0>         0.1649
     42 H8         -0.3982   -0.6972    8.1168 H         1 <0>         0.1648
     43 H9         -0.2278   -1.8869    5.9693 H         1 <0>         0.1582
     44 H10        -0.1131   -4.7149    0.8694 H         1 <0>         0.1019
     45 H11        -0.1291   -4.6978   -0.9104 H         1 <0>         0.1014
     46 H12         2.3132   -4.2696   -0.9283 H         1 <0>         0.0791
     47 H13         2.3292   -4.2867    0.8515 H         1 <0>         0.0794
     48 H14         1.9919   -6.3538    2.0769 H         1 <0>         0.1281
     49 H15         2.2037   -8.8059    2.0601 H         1 <0>         0.1361
     50 H16         1.9638   -6.3130   -2.1877 H         1 <0>         0.1376
     51 H17         2.9554   -7.4163   -3.6716 H         1 <0>         0.0554
     52 H18         2.1759   -8.7723   -4.5212 H         1 <0>         0.1017
     53 H19         1.1821   -7.5693   -3.6650 H         1 <0>         0.0565
     54 H20         2.4788  -12.0310    1.0301 H         1 <0>         0.1012
     55 H21         3.2503  -10.5912    1.7372 H         1 <0>         0.0549
     56 H22         1.4769  -10.7447    1.7441 H         1 <0>         0.0551
@<TRIPOS>BOND
     1    1    2 1
     2    1   35 1
     3    1   36 1
     4    1   37 1
     5    2    9 1
     6    2    3 2
     7    3    4 1
     8    3   33 1
     9    4    5 2
    10    4    6 am
    11    6    7 am
    12    6   21 1
    13    7    8 2
    14    7    9 1
    15    9   10 2
    16   10   11 1
    17   10   38 1
    18   11   12 1
    19   11   39 1
    20   12   17 ar
    21   12   13 ar
    22   13   14 ar
    23   13   40 1
    24   14   15 ar
    25   14   41 1
    26   15   16 ar
    27   15   18 1
    28   16   17 ar
    29   16   42 1
    30   17   43 1
    31   18   19 2
    32   18   20 1
    33   21   22 1
    34   21   44 1
    35   21   45 1
    36   22   23 1
    37   22   46 1
    38   22   47 1
    39   23   28 ar
    40   23   24 ar
    41   24   25 ar
    42   24   48 1
    43   25   26 ar
    44   25   49 1
    45   26   27 ar
    46   26   31 1
    47   27   28 ar
    48   27   29 1
    49   28   50 1
    50   29   30 1
    51   30   51 1
    52   30   52 1
    53   30   53 1
    54   31   32 1
    55   32   54 1
    56   32   55 1
    57   32   56 1
    58   33   34 3
@<TRIPOS>MOLECULE
ZINC63440549
   59    63     0     0     0
SMALL
USER_CHARGES

@<TRIPOS>ATOM
      1 C1         -0.0184    1.5028    0.0103 C.3       1 <0>        -0.0907
      2 C2          0.0021   -0.0041    0.0020 C.2       1 <0>        -0.0317
      3 C3         -1.0863   -0.7768    0.0030 C.2       1 <0>        -0.1660
      4 C4         -0.5311   -2.1901   -0.0073 C.3       1 <0>         0.1913
      5 H1         -0.8370   -2.7309    0.8883 H         1 <0>         0.1671
      6 N1          0.9257   -1.9734   -0.0130 N.2       1 <0>        -0.1542
      7 N2          1.1248   -0.7562   -0.0132 N.2       1 <0>        -0.1422
      8 N3         -0.9570   -2.9052   -1.2129 N.am      1 <0>        -0.6939
      9 C5         -1.4125   -4.1703   -1.1204 C.2       1 <0>         0.5075
     10 O1         -1.4698   -4.7167   -0.0392 O.2       1 <0>        -0.5119
     11 C6         -1.8505   -4.9060   -2.3606 C.3       1 <0>         0.1240
     12 N4         -2.2997   -6.2521   -1.9968 N.am      1 <0>        -0.5865
     13 C7         -1.3907   -7.3859   -1.9518 C.3       1 <0>         0.1718
     14 H2         -1.0789   -7.6410   -0.9390 H         1 <0>         0.1337
     15 C8         -2.1541   -8.5300   -2.6845 C.3       1 <0>        -0.1043
     16 H3         -2.5404   -8.0482   -3.5827 H         1 <0>         0.1282
     17 C9         -1.2064   -9.5640   -3.1840 C.2       1 <0>        -0.1246
     18 C10         0.0008   -9.0901   -3.5256 C.2       1 <0>        -0.1068
     19 S1          0.0034   -7.3094   -3.1409 S.3       1 <0>        -0.1214
     20 C11         0.8956  -10.1679   -4.0726 C.3       1 <0>        -0.0508
     21 C12         0.2556  -11.4871   -3.5884 C.3       1 <0>        -0.1161
     22 C13        -1.2203  -11.0728   -3.4368 C.3       1 <0>        -0.0620
     23 C14        -3.3573   -8.8623   -1.8898 C.2       1 <0>         0.5517
     24 O2         -3.7046  -10.0018   -1.6640 O.2       1 <0>        -0.4517
     25 N5         -4.0436   -7.7694   -1.4312 N.am      1 <0>        -0.5202
     26 C15        -3.5938   -6.5216   -1.6734 C.2       1 <0>         0.7225
     27 O3         -4.3796   -5.5970   -1.6041 O.2       1 <0>        -0.5177
     28 C16        -5.2272   -7.9496   -0.6957 C.ar      1 <0>         0.0541
     29 C17        -5.1759   -8.0601    0.6857 C.ar      1 <0>        -0.0170
     30 C18        -6.3395   -8.2368    1.4092 C.ar      1 <0>        -0.2362
     31 C19        -7.5617   -8.3045    0.7560 C.ar      1 <0>         0.1860
     32 C20        -7.6181   -8.1950   -0.6252 C.ar      1 <0>        -0.2397
     33 C21        -6.4535   -8.0115   -1.3527 C.ar      1 <0>         0.1990
     34 O4         -6.5071   -7.8978   -2.7064 O.3       1 <0>        -0.3043
     35 C22        -7.7989   -7.9706   -3.3129 C.3       1 <0>         0.0239
     36 O5         -8.7050   -8.4789    1.4706 O.3       1 <0>        -0.3114
     37 C23        -8.5733   -8.5845    2.8896 C.3       1 <0>         0.0240
     38 H4          1.0042    1.8801    0.0026 H         1 <0>         0.0822
     39 H5         -0.5455    1.8639   -0.8728 H         1 <0>         0.0819
     40 H6         -0.5286    1.8543    0.9071 H         1 <0>         0.0816
     41 H7         -2.1213   -0.4684    0.0099 H         1 <0>         0.1777
     42 H8         -0.9111   -2.4683   -2.0777 H         1 <0>         0.4109
     43 H9         -2.6701   -4.3649   -2.8336 H         1 <0>         0.1324
     44 H10        -1.0137   -4.9775   -3.0553 H         1 <0>         0.1251
     45 H11         0.9130  -10.1311   -5.1619 H         1 <0>         0.0902
     46 H12         1.9039  -10.0648   -3.6716 H         1 <0>         0.0847
     47 H13         0.3666  -12.2731   -4.3355 H         1 <0>         0.0878
     48 H14         0.6752  -11.7973   -2.6314 H         1 <0>         0.0797
     49 H15        -1.6715  -11.5916   -2.5910 H         1 <0>         0.0846
     50 H16        -1.7692  -11.2957   -4.3517 H         1 <0>         0.0846
     51 H17        -4.2256   -8.0084    1.1963 H         1 <0>         0.1364
     52 H18        -6.2977   -8.3227    2.4850 H         1 <0>         0.1401
     53 H19        -8.5697   -8.2481   -1.1331 H         1 <0>         0.1461
     54 H20        -8.2552   -8.9331   -3.0816 H         1 <0>         0.0608
     55 H21        -8.4275   -7.1683   -2.9264 H         1 <0>         0.0615
     56 H22        -7.6995   -7.8660   -4.3933 H         1 <0>         0.1037
     57 H23        -7.9423   -9.4393    3.1333 H         1 <0>         0.0603
     58 H24        -8.1191   -7.6743    3.2811 H         1 <0>         0.0599
     59 H25        -9.5580   -8.7206    3.3368 H         1 <0>         0.1044
@<TRIPOS>BOND
     1    1    2 1
     2    1   38 1
     3    1   39 1
     4    1   40 1
     5    2    7 1
     6    2    3 2
     7    3    4 1
     8    3   41 1
     9    4    5 1
    10    4    6 1
    11    4    8 1
    12    6    7 2
    13    8    9 am
    14    8   42 1
    15    9   10 2
    16    9   11 1
    17   11   12 1
    18   11   43 1
    19   11   44 1
    20   12   26 am
    21   12   13 1
    22   13   14 1
    23   13   19 1
    24   13   15 1
    25   15   16 1
    26   15   17 1
    27   15   23 1
    28   17   22 1
    29   17   18 2
    30   18   19 1
    31   18   20 1
    32   20   21 1
    33   20   45 1
    34   20   46 1
    35   21   22 1
    36   21   47 1
    37   21   48 1
    38   22   49 1
    39   22   50 1
    40   23   24 2
    41   23   25 am
    42   25   26 am
    43   25   28 1
    44   26   27 2
    45   28   33 ar
    46   28   29 ar
    47   29   30 ar
    48   29   51 1
    49   30   31 ar
    50   30   52 1
    51   31   32 ar
    52   31   36 1
    53   32   33 ar
    54   32   53 1
    55   33   34 1
    56   34   35 1
    57   35   54 1
    58   35   55 1
    59   35   56 1
    60   36   37 1
    61   37   57 1
    62   37   58 1
    63   37   59 1
@<TRIPOS>MOLECULE
ZINC09559316
   63    66     0     0     0
SMALL
USER_CHARGES
N-[(2-methoxyphenyl)methyl]-2-[4-[(4-methyl-1-piperidyl)sulfonyl]-1-oxo-2-isoquinolyl]-acetamide
@<TRIPOS>ATOM
      1 C1          3.9959    8.2227   -5.6036 C.3       1 <0>        -0.1484
      2 C2          3.2713    7.5575   -4.4316 C.3       1 <0>        -0.0922
      3 C3          2.5340    6.3120   -4.9287 C.3       1 <0>        -0.1271
      4 C4          1.8384    5.6295   -3.7468 C.3       1 <0>         0.1166
      5 N1          0.9778    6.6115   -3.0732 N.pl3     1 <0>        -0.9936
      6 C5          1.5657    7.8864   -2.6399 C.3       1 <0>         0.1134
      7 C6          2.2656    8.5413   -3.8293 C.3       1 <0>        -0.1279
      8 S1         -0.6259    6.2904   -2.8136 S.o2      1 <0>         2.7073
      9 O1         -1.0095    5.3267   -3.7849 O.2       1 <0>        -0.9581
     10 O2         -1.2768    7.5474   -2.6892 O.2       1 <0>        -0.9463
     11 C7         -0.7516    5.5006   -1.2436 C.2       1 <0>        -0.7578
     12 C8         -0.9773    4.1792   -1.1664 C.2       1 <0>         0.2672
     13 N2         -1.0833    3.5231    0.0263 N.am      1 <0>        -0.5030
     14 C9         -0.9729    4.1589    1.2096 C.2       1 <0>         0.5617
     15 O3         -1.0783    3.5403    2.2535 O.2       1 <0>        -0.5037
     16 C10        -0.7199    5.6038    1.2256 C.ar      1 <0>        -0.1529
     17 C11        -0.6113    6.2796   -0.0120 C.ar      1 <0>         0.0572
     18 C12        -0.3765    7.6547   -0.0301 C.ar      1 <0>        -0.1487
     19 C13        -0.2537    8.3353    1.1494 C.ar      1 <0>        -0.0674
     20 C14        -0.3596    7.6763    2.3673 C.ar      1 <0>        -0.1369
     21 C15        -0.5911    6.3190    2.4157 C.ar      1 <0>        -0.0430
     22 C16        -1.3314    2.0792    0.0197 C.3       1 <0>         0.0650
     23 C17        -0.0162    1.3436    0.0094 C.2       1 <0>         0.5010
     24 O4          1.0258    1.9642    0.0028 O.2       1 <0>        -0.5244
     25 N3          0.0021   -0.0041    0.0020 N.am      1 <0>        -0.7147
     26 C18         1.2806   -0.7192   -0.0140 C.3       1 <0>         0.1745
     27 C19         1.0253   -2.2044   -0.0196 C.ar      1 <0>        -0.1480
     28 C20         1.1298   -2.9283    1.1526 C.ar      1 <0>        -0.0602
     29 C21         0.8911   -4.2900    1.1491 C.ar      1 <0>        -0.1580
     30 C22         0.5576   -4.9328   -0.0290 C.ar      1 <0>        -0.0684
     31 C23         0.4570   -4.2146   -1.2045 C.ar      1 <0>        -0.2108
     32 C24         0.6909   -2.8469   -1.2026 C.ar      1 <0>         0.1450
     33 O5          0.5931   -2.1380   -2.3579 O.3       1 <0>        -0.3116
     34 C25         0.2448   -2.8653   -3.5377 C.3       1 <0>         0.0253
     35 H1          3.2696    8.5096   -6.3640 H         1 <0>         0.0552
     36 H2          4.5211    9.1098   -5.2497 H         1 <0>         0.0558
     37 H3          4.7131    7.5225   -6.0319 H         1 <0>         0.0556
     38 H4          3.9978    7.2702   -3.6714 H         1 <0>         0.0733
     39 H5          3.2478    5.6219   -5.3786 H         1 <0>         0.0775
     40 H6          1.7900    6.6016   -5.6709 H         1 <0>         0.0702
     41 H7          2.5871    5.2587   -3.0467 H         1 <0>         0.0726
     42 H8          1.2316    4.7997   -4.1094 H         1 <0>         0.0930
     43 H9          0.7790    8.5454   -2.2724 H         1 <0>         0.0941
     44 H10         2.2917    7.7035   -1.8477 H         1 <0>         0.0733
     45 H11         2.7884    9.4381   -3.4967 H         1 <0>         0.0786
     46 H12         1.5242    8.8100   -4.5818 H         1 <0>         0.0704
     47 H13        -1.0791    3.6147   -2.0814 H         1 <0>         0.1785
     48 H14        -0.2918    8.1787   -0.9706 H         1 <0>         0.1474
     49 H15        -0.0716    9.3997    1.1338 H         1 <0>         0.1351
     50 H16        -0.2589    8.2339    3.2867 H         1 <0>         0.1347
     51 H17        -0.6726    5.8137    3.3667 H         1 <0>         0.1393
     52 H18        -1.9035    1.8130   -0.8691 H         1 <0>         0.1297
     53 H19        -1.8951    1.8033    0.9108 H         1 <0>         0.1357
     54 H20        -0.8313   -0.5005    0.0073 H         1 <0>         0.4035
     55 H21         1.8400   -0.4434   -0.9079 H         1 <0>         0.0818
     56 H22         1.8570   -0.4529    0.8719 H         1 <0>         0.0773
     57 H23         1.3941   -2.4292    2.0732 H         1 <0>         0.1322
     58 H24         0.9692   -4.8534    2.0672 H         1 <0>         0.1280
     59 H25         0.3759   -5.9974   -0.0300 H         1 <0>         0.1278
     60 H26         0.1969   -4.7171   -2.1243 H         1 <0>         0.1311
     61 H27         0.2008   -2.1821   -4.3859 H         1 <0>         0.1028
     62 H28         0.9962   -3.6318   -3.7272 H         1 <0>         0.0573
     63 H29        -0.7283   -3.3366   -3.4000 H         1 <0>         0.0572
@<TRIPOS>BOND
     1    1    2 1
     2    1   35 1
     3    1   36 1
     4    1   37 1
     5    2    7 1
     6    2    3 1
     7    2   38 1
     8    3    4 1
     9    3   39 1
    10    3   40 1
    11    4    5 1
    12    4   41 1
    13    4   42 1
    14    5    6 1
    15    5    8 1
    16    6    7 1
    17    6   43 1
    18    6   44 1
    19    7   45 1
    20    7   46 1
    21    8    9 2
    22    8   10 2
    23    8   11 1
    24   11   17 1
    25   11   12 2
    26   12   13 1
    27   12   47 1
    28   13   14 am
    29   13   22 1
    30   14   15 2
    31   14   16 1
    32   16   21 ar
    33   16   17 ar
    34   17   18 ar
    35   18   19 ar
    36   18   48 1
    37   19   20 ar
    38   19   49 1
    39   20   21 ar
    40   20   50 1
    41   21   51 1
    42   22   23 1
    43   22   52 1
    44   22   53 1
    45   23   24 2
    46   23   25 am
    47   25   26 1
    48   25   54 1
    49   26   27 1
    50   26   55 1
    51   26   56 1
    52   27   32 ar
    53   27   28 ar
    54   28   29 ar
    55   28   57 1
    56   29   30 ar
    57   29   58 1
    58   30   31 ar
    59   30   59 1
    60   31   32 ar
    61   31   60 1
    62   32   33 1
    63   33   34 1
    64   34   61 1
    65   34   62 1
    66   34   63 1
@<TRIPOS>MOLECULE
ZINC17597621
   59    62     0     0     0
SMALL
USER_CHARGES
[2-[2,5-dimethyl-1-(p-tolyl)pyrrol-3-yl]-2-oxo-ethyl] 4-[(2,5-dioxoimidazolidin-1-yl)methyl]benzoate
@<TRIPOS>ATOM
      1 C1          7.7508    0.7601   -0.0681 C.3       1 <0>        -0.1203
      2 C2          6.2438    0.7593   -0.0537 C.ar      1 <0>        -0.0705
      3 C3          5.5437    0.2588   -1.1360 C.ar      1 <0>        -0.1085
      4 C4          4.1626    0.2564   -1.1256 C.ar      1 <0>        -0.0997
      5 C5          3.4772    0.7575   -0.0271 C.ar      1 <0>         0.0955
      6 C6          4.1829    1.2646    1.0557 C.ar      1 <0>        -0.1009
      7 C7          5.5640    1.2595    1.0416 C.ar      1 <0>        -0.1080
      8 N1          2.0757    0.7568   -0.0137 N.pl3     1 <0>        -0.3897
      9 C8          1.2957   -0.3660   -0.0123 C.2       1 <0>         0.0194
     10 C9          0.0021   -0.0041    0.0020 C.2       1 <0>        -0.1509
     11 C10        -0.0179    1.4651    0.0101 C.2       1 <0>        -0.2648
     12 C11         1.3062    1.8624   -0.0004 C.2       1 <0>         0.1286
     13 C12         1.8025    3.2853    0.0017 C.3       1 <0>        -0.0986
     14 C13        -1.1985    2.3311    0.0207 C.2       1 <0>         0.4295
     15 O1         -1.0662    3.5374    0.0261 O.2       1 <0>        -0.4466
     16 C14        -2.5780    1.7244    0.0248 C.3       1 <0>         0.0433
     17 O2         -3.5721    2.7827    0.0354 O.3       1 <0>        -0.3345
     18 C15        -4.8657    2.4066    0.0402 C.2       1 <0>         0.5098
     19 O3         -5.1552    1.2269    0.0357 O.2       1 <0>        -0.5020
     20 C16        -5.9321    3.4288    0.0510 C.ar      1 <0>        -0.1158
     21 C17        -5.6027    4.7857    0.0619 C.ar      1 <0>        -0.0619
     22 C18        -6.6036    5.7350    0.0661 C.ar      1 <0>        -0.1048
     23 C19        -7.9312    5.3452    0.0711 C.ar      1 <0>        -0.0861
     24 C20        -8.2646    4.0023    0.0660 C.ar      1 <0>        -0.1086
     25 C21        -7.2738    3.0425    0.0560 C.ar      1 <0>        -0.0567
     26 C22        -9.0191    6.3880    0.0815 C.3       1 <0>         0.1565
     27 N2         -9.3649    6.7191    1.4661 N.am      1 <0>        -0.5740
     28 C23       -10.3188    6.0888    2.1796 C.2       1 <0>         0.5206
     29 O4        -11.0257    5.1756    1.8108 O.2       1 <0>        -0.4632
     30 C24       -10.3225    6.7580    3.5397 C.3       1 <0>         0.0614
     31 N3         -9.2772    7.7892    3.4211 N.am      1 <0>        -0.7283
     32 C25        -8.7767    7.6883    2.1765 C.2       1 <0>         0.7009
     33 O5         -7.8893    8.3983    1.7456 O.2       1 <0>        -0.5369
     34 C26         1.8059   -1.7840   -0.0240 C.3       1 <0>        -0.0868
     35 H1          8.1095    1.6942   -0.5004 H         1 <0>         0.0765
     36 H2          8.1239    0.6648    0.9516 H         1 <0>         0.0710
     37 H3          8.1088   -0.0781   -0.6658 H         1 <0>         0.0710
     38 H4          6.0774   -0.1308   -1.9903 H         1 <0>         0.1338
     39 H5          3.6163   -0.1347   -1.9712 H         1 <0>         0.1305
     40 H6          3.6525    1.6591    1.9098 H         1 <0>         0.1301
     41 H7          6.1135    1.6501    1.8854 H         1 <0>         0.1339
     42 H8         -0.8539   -0.6626    0.0061 H         1 <0>         0.1530
     43 H9          1.9322    3.6233    1.0299 H         1 <0>         0.0820
     44 H10         2.7574    3.3378   -0.5212 H         1 <0>         0.0681
     45 H11         1.0769    3.9240   -0.5019 H         1 <0>         0.1012
     46 H12        -2.6976    1.1628   -0.7940 H         1 <0>         0.0928
     47 H13        -2.6991    1.1033    0.9123 H         1 <0>         0.1051
     48 H14        -4.5669    5.0912    0.0626 H         1 <0>         0.1446
     49 H15        -6.3503    6.7849    0.0697 H         1 <0>         0.1400
     50 H16        -9.3028    3.7049    0.0703 H         1 <0>         0.1384
     51 H17        -7.5354    1.9947    0.0517 H         1 <0>         0.1414
     52 H18        -8.6679    7.2845   -0.4296 H         1 <0>         0.1112
     53 H19        -9.8997    5.9995   -0.4300 H         1 <0>         0.1093
     54 H20       -10.0692    6.0434    4.3227 H         1 <0>         0.1258
     55 H21       -11.2921    7.2157    3.7359 H         1 <0>         0.1260
     56 H22        -9.0035    8.4185    4.1066 H         1 <0>         0.4433
     57 H23         1.9194   -2.1208   -1.0544 H         1 <0>         0.0737
     58 H24         2.7711   -1.8270    0.4807 H         1 <0>         0.0656
     59 H25         1.0963   -2.4297    0.4933 H         1 <0>         0.0843
@<TRIPOS>BOND
     1    1    2 1
     2    1   35 1
     3    1   36 1
     4    1   37 1
     5    2    7 ar
     6    2    3 ar
     7    3    4 ar
     8    3   38 1
     9    4    5 ar
    10    4   39 1
    11    5    6 ar
    12    5    8 1
    13    6    7 ar
    14    6   40 1
    15    7   41 1
    16    8   12 1
    17    8    9 1
    18    9   10 2
    19    9   34 1
    20   10   11 1
    21   10   42 1
    22   11   12 2
    23   11   14 1
    24   12   13 1
    25   13   43 1
    26   13   44 1
    27   13   45 1
    28   14   15 2
    29   14   16 1
    30   16   17 1
    31   16   46 1
    32   16   47 1
    33   17   18 1
    34   18   19 2
    35   18   20 1
    36   20   25 ar
    37   20   21 ar
    38   21   22 ar
    39   21   48 1
    40   22   23 ar
    41   22   49 1
    42   23   24 ar
    43   23   26 1
    44   24   25 ar
    45   24   50 1
    46   25   51 1
    47   26   27 1
    48   26   52 1
    49   26   53 1
    50   27   32 am
    51   27   28 am
    52   28   29 2
    53   28   30 1
    54   30   31 1
    55   30   54 1
    56   30   55 1
    57   31   32 am
    58   31   56 1
    59   32   33 2
    60   34   57 1
    61   34   58 1
    62   34   59 1
@<TRIPOS>MOLECULE
ZINC23546423
   57    60     0     0     0
SMALL
USER_CHARGES
[(1S)-1-methyl-2-[[2-morpholino-5-(trifluoromethyl)phenyl]amino]-2-oxo-ethyl] (3R)-2,3-dihydro-1,4-benzodioxine-3-carboxylate
@<TRIPOS>ATOM
      1 C1          2.1742   -0.7984   -3.6811 C.3       1 <0>        -0.1700
      2 C2          0.6943   -0.5530   -3.9820 C.3       1 <0>         0.0750
      3 H1          0.5635    0.2776   -4.6912 H         1 <0>         0.1212
      4 C3          0.0800   -1.8105   -4.5409 C.2       1 <0>         0.5189
      5 O1         -0.8461   -2.3410   -3.9647 O.2       1 <0>        -0.4954
      6 N1          0.5597   -2.3456   -5.6811 N.am      1 <0>        -0.6639
      7 C4          0.0678   -3.5755   -6.1392 C.ar      1 <0>         0.1825
      8 C5         -0.4886   -4.4782   -5.2457 C.ar      1 <0>        -0.0812
      9 C6         -0.9775   -5.6887   -5.7004 C.ar      1 <0>        -0.1597
     10 C7         -0.9044   -6.0079   -7.0439 C.ar      1 <0>        -0.0805
     11 C8         -0.3468   -5.1164   -7.9409 C.ar      1 <0>        -0.1249
     12 C9          0.1416   -3.8972   -7.4942 C.ar      1 <0>         0.0846
     13 N2          0.7060   -2.9931   -8.4002 N.pl3     1 <0>        -0.5030
     14 C10        -0.2917   -2.5350   -9.3781 C.3       1 <0>         0.0203
     15 C11         0.3512   -1.5049  -10.3106 C.3       1 <0>         0.0619
     16 O2          1.4969   -2.0870  -10.9382 O.3       1 <0>        -0.3810
     17 C12         2.4893   -2.5435  -10.0151 C.3       1 <0>         0.0617
     18 C13         1.8681   -3.5842   -9.0796 C.3       1 <0>         0.0162
     19 C14        -1.5868   -6.6656   -4.7281 C.3       1 <0>         0.5098
     20 F1         -2.0016   -7.8110   -5.4162 F         1 <0>        -0.1759
     21 F2         -0.6361   -7.0192   -3.7647 F         1 <0>        -0.1748
     22 F3         -2.6885   -6.0738   -4.1010 F         1 <0>        -0.1716
     23 O3          0.0068   -0.1810   -2.7584 O.3       1 <0>        -0.3243
     24 C15        -0.0463    1.1273   -2.4628 C.2       1 <0>         0.4763
     25 O4          0.4647    1.9349   -3.2021 O.2       1 <0>        -0.4698
     26 C16        -0.7434    1.5888   -1.2090 C.3       1 <0>         0.0641
     27 H2         -1.7946    1.2655   -1.2314 H         1 <0>         0.1306
     28 C17         0.0063    1.0639    0.0231 C.3       1 <0>         0.0370
     29 O5         -0.6728    1.5305    1.1940 O.3       1 <0>        -0.2940
     30 C18        -1.0270    2.8448    1.2121 C.ar      1 <0>         0.0453
     31 C19        -1.3529    3.4450    2.4193 C.ar      1 <0>        -0.1096
     32 C20        -1.7166    4.7778    2.4539 C.ar      1 <0>        -0.1115
     33 C21        -1.7569    5.5163    1.2859 C.ar      1 <0>        -0.1120
     34 C22        -1.4328    4.9246    0.0798 C.ar      1 <0>        -0.1074
     35 C23        -1.0655    3.5877    0.0382 C.ar      1 <0>         0.0507
     36 O6         -0.7455    3.0196   -1.1565 O.3       1 <0>        -0.2884
     37 H3          2.6225    0.1195   -3.2731 H         1 <0>         0.0820
     38 H4          2.6950   -1.0802   -4.6081 H         1 <0>         0.0880
     39 H5          2.2690   -1.6109   -2.9457 H         1 <0>         0.0805
     40 H6          1.3372   -1.8171   -6.2521 H         1 <0>         0.4483
     41 H7         -0.5436   -4.2339   -4.1952 H         1 <0>         0.1605
     42 H8         -1.2845   -6.9565   -7.3933 H         1 <0>         0.1422
     43 H9         -0.2909   -5.3690   -8.9894 H         1 <0>         0.1372
     44 H10        -0.6489   -3.3928   -9.9668 H         1 <0>         0.0544
     45 H11        -1.1393   -2.0749   -8.8491 H         1 <0>         0.0910
     46 H12        -0.3756   -1.2016  -11.0786 H         1 <0>         0.1046
     47 H13         0.6580   -0.6238   -9.7279 H         1 <0>         0.0630
     48 H14         3.3241   -2.9975  -10.5691 H         1 <0>         0.1045
     49 H15         2.8605   -1.6925   -9.4252 H         1 <0>         0.0629
     50 H16         2.6108   -3.8967   -8.3308 H         1 <0>         0.0922
     51 H17         1.5457   -4.4589   -9.6635 H         1 <0>         0.0546
     52 H18         0.0160   -0.0359    0.0054 H         1 <0>         0.1412
     53 H19         1.0400    1.4399    0.0111 H         1 <0>         0.0885
     54 H20        -1.3227    2.8702    3.3331 H         1 <0>         0.1382
     55 H21        -1.9701    5.2431    3.3950 H         1 <0>         0.1357
     56 H22        -2.0428    6.5574    1.3159 H         1 <0>         0.1360
     57 H23        -1.4653    5.5037   -0.8312 H         1 <0>         0.1378
@<TRIPOS>BOND
     1    1    2 1
     2    1   37 1
     3    1   38 1
     4    1   39 1
     5    2    3 1
     6    2    4 1
     7    2   23 1
     8    4    5 2
     9    4    6 am
    10    6    7 1
    11    6   40 1
    12    7   12 ar
    13    7    8 ar
    14    8    9 ar
    15    8   41 1
    16    9   10 ar
    17    9   19 1
    18   10   11 ar
    19   10   42 1
    20   11   12 ar
    21   11   43 1
    22   12   13 1
    23   13   18 1
    24   13   14 1
    25   14   15 1
    26   14   44 1
    27   14   45 1
    28   15   16 1
    29   15   46 1
    30   15   47 1
    31   16   17 1
    32   17   18 1
    33   17   48 1
    34   17   49 1
    35   18   50 1
    36   18   51 1
    37   19   20 1
    38   19   21 1
    39   19   22 1
    40   23   24 1
    41   24   25 2
    42   24   26 1
    43   26   27 1
    44   26   36 1
    45   26   28 1
    46   28   29 1
    47   28   52 1
    48   28   53 1
    49   29   30 1
    50   30   35 ar
    51   30   31 ar
    52   31   32 ar
    53   31   54 1
    54   32   33 ar
    55   32   55 1
    56   33   34 ar
    57   33   56 1
    58   34   35 ar
    59   34   57 1
    60   35   36 1
@<TRIPOS>MOLECULE
ZINC18279794
   67    70     0     0     0
SMALL
USER_CHARGES

@<TRIPOS>ATOM
      1 C1          4.3295    1.0446   -0.0124 C.3       1 <0>        -0.1175
      2 C2          5.1414   -0.1376    0.4508 C.ar      1 <0>        -0.0811
      3 C3          6.3891   -0.3759   -0.0982 C.ar      1 <0>        -0.1052
      4 C4          7.1408   -1.4588    0.3213 C.ar      1 <0>        -0.1110
      5 C5          6.6501   -2.3089    1.2911 C.ar      1 <0>        -0.1211
      6 C6          5.3925   -2.0743    1.8488 C.ar      1 <0>        -0.0147
      7 C7          4.6415   -0.9765    1.4250 C.ar      1 <0>        -0.0753
      8 C8          4.8603   -2.9813    2.8879 C.2       1 <0>         0.2276
      9 N1          3.8640   -2.7317    3.7054 N.2       1 <0>        -0.2667
     10 N2          3.6674   -3.7398    4.4778 N.2       1 <0>        -0.2923
     11 C9          4.5265   -4.6952    4.2005 C.2       1 <0>         0.1450
     12 N3          5.3118   -4.2485    3.1765 N.pl3     1 <0>        -0.4566
     13 C10         6.4082   -4.9677    2.5230 C.3       1 <0>         0.0625
     14 S1          4.6395   -6.2627    4.9972 S.3       1 <0>         0.0780
     15 C11         3.3214   -6.2181    6.2426 C.3       1 <0>        -0.1436
     16 C12         3.3077   -7.5171    7.0064 C.2       1 <0>         0.5381
     17 O1          4.1084   -8.3874    6.7370 O.2       1 <0>        -0.5228
     18 N4          2.4058   -7.7118    7.9888 N.am      1 <0>        -0.6073
     19 C13         1.4222   -6.6721    8.3274 C.3       1 <0>         0.1081
     20 C14         1.4744   -6.4265    9.8391 C.3       1 <0>         0.0406
     21 N5          1.2978   -7.7023   10.5456 N.3       1 <0>        -0.5195
     22 C15         2.3935   -8.6336   10.2456 C.3       1 <0>         0.0370
     23 C16         2.3751   -8.9720    8.7465 C.3       1 <0>         0.1221
     24 C17         1.1697   -7.4891   11.9934 C.3       1 <0>         0.0377
     25 C18         0.7479   -8.7755   12.6553 C.2       1 <0>         0.5121
     26 O2          0.5714   -9.7720   11.9867 O.2       1 <0>        -0.4959
     27 N6          0.5668   -8.8188   13.9901 N.am      1 <0>        -0.6785
     28 C19         0.2897  -10.0374   14.6194 C.ar      1 <0>         0.1307
     29 C20         1.1056  -10.4909   15.6477 C.ar      1 <0>        -0.0912
     30 C21         0.8294  -11.6942   16.2668 C.ar      1 <0>        -0.1180
     31 C22        -0.2581  -12.4472   15.8638 C.ar      1 <0>        -0.1132
     32 C23        -1.0722  -11.9987   14.8399 C.ar      1 <0>        -0.1173
     33 C24        -0.8050  -10.7933   14.2209 C.ar      1 <0>        -0.0647
     34 C25        -1.6969  -10.3018   13.1100 C.3       1 <0>        -0.1053
     35 C26         2.2913   -9.6711   16.0872 C.3       1 <0>        -0.1144
     36 H1          4.5691    1.9128    0.6015 H         1 <0>         0.0749
     37 H2          4.5643    1.2606   -1.0546 H         1 <0>         0.0699
     38 H3          3.2680    0.8153    0.0810 H         1 <0>         0.0703
     39 H4          6.7776    0.2863   -0.8578 H         1 <0>         0.1285
     40 H5          8.1137   -1.6394   -0.1114 H         1 <0>         0.1308
     41 H6          7.2378   -3.1541    1.6175 H         1 <0>         0.1280
     42 H7          3.6697   -0.7867    1.8560 H         1 <0>         0.1366
     43 H8          7.3559   -4.6713    2.9725 H         1 <0>         0.0912
     44 H9          6.2655   -6.0408    2.6503 H         1 <0>         0.0993
     45 H10         6.4187   -4.7261    1.4602 H         1 <0>         0.1014
     46 H11         3.5008   -5.3931    6.9321 H         1 <0>         0.1259
     47 H12         2.3599   -6.0766    5.7491 H         1 <0>         0.1274
     48 H13         1.6662   -5.7509    7.7982 H         1 <0>         0.0940
     49 H14         0.4239   -7.0065    8.0451 H         1 <0>         0.0866
     50 H15         2.4393   -5.9944   10.1043 H         1 <0>         0.0438
     51 H16         0.6772   -5.7398   10.1238 H         1 <0>         0.0942
     52 H17         3.3456   -8.1708   10.5052 H         1 <0>         0.0364
     53 H18         2.2630   -9.5476   10.8251 H         1 <0>         0.1073
     54 H19         1.4666   -9.5233    8.5036 H         1 <0>         0.0830
     55 H20         3.2494   -9.5722    8.4945 H         1 <0>         0.0986
     56 H21         2.1290   -7.1689   12.3998 H         1 <0>         0.0680
     57 H22         0.4202   -6.7205   12.1825 H         1 <0>         0.1091
     58 H23         0.6285   -8.0051   14.5145 H         1 <0>         0.4075
     59 H24         1.4637  -12.0476   17.0663 H         1 <0>         0.1253
     60 H25        -0.4719  -13.3879   16.3495 H         1 <0>         0.1246
     61 H26        -1.9206  -12.5893   14.5272 H         1 <0>         0.1252
     62 H27        -1.4008  -10.7711   12.1718 H         1 <0>         0.0854
     63 H28        -2.7320  -10.5592   13.3343 H         1 <0>         0.0595
     64 H29        -1.6028   -9.2196   13.0204 H         1 <0>         0.0564
     65 H30         2.0052   -9.0410   16.9293 H         1 <0>         0.0718
     66 H31         3.1007  -10.3358   16.3892 H         1 <0>         0.0702
     67 H32         2.6255   -9.0437   15.2609 H         1 <0>         0.0629
@<TRIPOS>BOND
     1    1    2 1
     2    1   36 1
     3    1   37 1
     4    1   38 1
     5    2    7 ar
     6    2    3 ar
     7    3    4 ar
     8    3   39 1
     9    4    5 ar
    10    4   40 1
    11    5    6 ar
    12    5   41 1
    13    6    7 ar
    14    6    8 1
    15    7   42 1
    16    8   12 1
    17    8    9 2
    18    9   10 1
    19   10   11 2
    20   11   12 1
    21   11   14 1
    22   12   13 1
    23   13   43 1
    24   13   44 1
    25   13   45 1
    26   14   15 1
    27   15   16 1
    28   15   46 1
    29   15   47 1
    30   16   17 2
    31   16   18 am
    32   18   23 1
    33   18   19 1
    34   19   20 1
    35   19   48 1
    36   19   49 1
    37   20   21 1
    38   20   50 1
    39   20   51 1
    40   21   22 1
    41   21   24 1
    42   22   23 1
    43   22   52 1
    44   22   53 1
    45   23   54 1
    46   23   55 1
    47   24   25 1
    48   24   56 1
    49   24   57 1
    50   25   26 2
    51   25   27 am
    52   27   28 1
    53   27   58 1
    54   28   33 ar
    55   28   29 ar
    56   29   30 ar
    57   29   35 1
    58   30   31 ar
    59   30   59 1
    60   31   32 ar
    61   31   60 1
    62   32   33 ar
    63   32   61 1
    64   33   34 1
    65   34   62 1
    66   34   63 1
    67   34   64 1
    68   35   65 1
    69   35   66 1
    70   35   67 1
@<TRIPOS>MOLECULE
ZINC15240762
   57    60     0     0     0
SMALL
USER_CHARGES

@<TRIPOS>ATOM
      1 C1         -1.6139    2.9005   -0.1087 C.3       1 <0>        -0.1501
      2 C2         -1.7066    1.5298   -0.7820 C.3       1 <0>         0.0012
      3 C3         -0.4846    0.6912   -0.4020 C.3       1 <0>        -0.1451
      4 C4         -2.9593    0.8286   -0.3236 C.2       1 <0>         0.1354
      5 N1         -3.1082   -0.0288    0.6453 N.2       1 <0>        -0.2570
      6 N2         -4.3406   -0.5740    0.9349 N.pl3     1 <0>        -0.4332
      7 C5         -4.6279   -1.4383    2.0134 C.2       1 <0>         0.4684
      8 N3         -3.8977   -1.5038    3.0946 N.2       1 <0>        -0.6472
      9 C6         -5.8468   -2.2682    1.7968 C.2       1 <0>        -0.2367
     10 C7         -5.9540   -3.5449    2.3010 C.2       1 <0>         0.1001
     11 C8         -7.0814   -4.3943    1.9103 C.ar      1 <0>        -0.1450
     12 C9         -7.5825   -4.3411    0.6016 C.ar      1 <0>        -0.0124
     13 C10        -8.6343   -5.1357    0.2432 C.ar      1 <0>        -0.1530
     14 C11        -9.2081   -5.9964    1.1734 C.ar      1 <0>         0.1630
     15 C12        -8.7154   -6.0537    2.4731 C.ar      1 <0>        -0.2213
     16 C13        -7.6604   -5.2681    2.8419 C.ar      1 <0>        -0.0326
     17 O1        -10.2528   -6.7829    0.8116 O.3       1 <0>        -0.3019
     18 C14       -10.7950   -7.6436    1.8153 C.3       1 <0>         0.0586
     19 C15       -11.9562   -8.4465    1.2255 C.3       1 <0>         0.0610
     20 O2        -11.4634   -9.3182    0.2061 O.3       1 <0>        -0.3045
     21 C16       -12.3729  -10.1075   -0.4237 C.ar      1 <0>         0.1695
     22 C17       -13.7136  -10.0396   -0.0710 C.ar      1 <0>        -0.2462
     23 C18       -14.6388  -10.8417   -0.7108 C.ar      1 <0>        -0.0393
     24 C19       -14.2320  -11.7137   -1.7028 C.ar      1 <0>        -0.2449
     25 C20       -12.8929  -11.7852   -2.0590 C.ar      1 <0>         0.1666
     26 C21       -11.9634  -10.9768   -1.4226 C.ar      1 <0>        -0.1873
     27 O3        -12.4935  -12.6429   -3.0345 O.3       1 <0>        -0.3142
     28 C22       -13.5059  -13.4410   -3.6511 C.3       1 <0>         0.0270
     29 C23        -6.9390   -1.6445    1.0090 C.2       1 <0>         0.5460
     30 O4         -8.0968   -2.0055    1.1454 O.2       1 <0>        -0.4314
     31 N4         -6.6152   -0.6678    0.1392 N.2       1 <0>        -0.5420
     32 C24        -5.3860   -0.2171    0.1105 C.2       1 <0>         0.3961
     33 S1         -4.6218    0.9673   -0.9658 S.3       1 <0>         0.0884
     34 H1         -0.7079    3.4077   -0.4403 H         1 <0>         0.0829
     35 H2         -2.4845    3.4979   -0.3795 H         1 <0>         0.0668
     36 H3         -1.5834    2.7725    0.9733 H         1 <0>         0.0657
     37 H4         -1.7372    1.6578   -1.8641 H         1 <0>         0.1163
     38 H5          0.4214    1.1984   -0.7336 H         1 <0>         0.0782
     39 H6         -0.4541    0.5632    0.6800 H         1 <0>         0.0685
     40 H7         -0.5507   -0.2853   -0.8817 H         1 <0>         0.0640
     41 H8         -3.1134   -0.9404    3.1851 H         1 <0>         0.3603
     42 H9         -5.2067   -3.9200    2.9846 H         1 <0>         0.1523
     43 H10        -7.1380   -3.6731   -0.1213 H         1 <0>         0.1223
     44 H11        -9.0213   -5.0955   -0.7642 H         1 <0>         0.1364
     45 H12        -9.1653   -6.7236    3.1909 H         1 <0>         0.1340
     46 H13        -7.2759   -5.3167    3.8499 H         1 <0>         0.1337
     47 H14       -10.0211   -8.3270    2.1646 H         1 <0>         0.0792
     48 H15       -11.1553   -7.0445    2.6516 H         1 <0>         0.0901
     49 H16       -12.4264   -9.0367    2.0122 H         1 <0>         0.0891
     50 H17       -12.6893   -7.7635    0.7964 H         1 <0>         0.0786
     51 H18       -14.0338   -9.3595    0.7044 H         1 <0>         0.1294
     52 H19       -15.6816  -10.7875   -0.4350 H         1 <0>         0.1292
     53 H20       -14.9571  -12.3402   -2.2011 H         1 <0>         0.1302
     54 H21       -10.9212  -11.0278   -1.7015 H         1 <0>         0.1391
     55 H22       -13.9898  -14.0608   -2.8962 H         1 <0>         0.0575
     56 H23       -14.2468  -12.7915   -4.1174 H         1 <0>         0.0577
     57 H24       -13.0534  -14.0794   -4.4098 H         1 <0>         0.1025
@<TRIPOS>BOND
     1    1    2 1
     2    1   34 1
     3    1   35 1
     4    1   36 1
     5    2    3 1
     6    2    4 1
     7    2   37 1
     8    3   38 1
     9    3   39 1
    10    3   40 1
    11    4   33 1
    12    4    5 2
    13    5    6 1
    14    6   32 1
    15    6    7 1
    16    7    8 2
    17    7    9 1
    18    8   41 1
    19    9   10 2
    20    9   29 1
    21   10   11 1
    22   10   42 1
    23   11   16 ar
    24   11   12 ar
    25   12   13 ar
    26   12   43 1
    27   13   14 ar
    28   13   44 1
    29   14   15 ar
    30   14   17 1
    31   15   16 ar
    32   15   45 1
    33   16   46 1
    34   17   18 1
    35   18   19 1
    36   18   47 1
    37   18   48 1
    38   19   20 1
    39   19   49 1
    40   19   50 1
    41   20   21 1
    42   21   26 ar
    43   21   22 ar
    44   22   23 ar
    45   22   51 1
    46   23   24 ar
    47   23   52 1
    48   24   25 ar
    49   24   53 1
    50   25   26 ar
    51   25   27 1
    52   26   54 1
    53   27   28 1
    54   28   55 1
    55   28   56 1
    56   28   57 1
    57   29   30 2
    58   29   31 1
    59   31   32 2
    60   32   33 1
@<TRIPOS>MOLECULE
ZINC08897285
   56    59     0     0     0
SMALL
USER_CHARGES
2-[[2,4-dimethyl-3,5-dioxo-9-(p-tolyl)-2,4,8,10-tetrazabicyclo[4.4.0]deca-6,8,10-trien-7-yl]sulfanyl]-N-[(4-fluorophenyl)methyl]acetamide
@<TRIPOS>ATOM
      1 C1         -7.5679    6.2750   -5.2956 C.3       1 <0>        -0.1230
      2 C2         -6.3796    5.4562   -5.7299 C.ar      1 <0>        -0.0515
      3 C3         -5.5511    4.8865   -4.7797 C.ar      1 <0>        -0.1343
      4 C4         -4.4613    4.1362   -5.1714 C.ar      1 <0>        -0.0553
      5 C5         -4.1961    3.9524   -6.5278 C.ar      1 <0>        -0.0712
      6 C6         -5.0319    4.5331   -7.4809 C.ar      1 <0>        -0.0539
      7 C7         -6.1213    5.2778   -7.0772 C.ar      1 <0>        -0.1336
      8 C8         -3.0268    3.1480   -6.9550 C.ar      1 <0>         0.4541
      9 N1         -2.8005    2.9911   -8.2548 N.ar      1 <0>        -0.5535
     10 C9         -1.7661    2.2800   -8.6750 C.ar      1 <0>         0.4716
     11 C10        -0.9103    1.6932   -7.7215 C.ar      1 <0>        -0.3068
     12 C11        -1.1839    1.8828   -6.3572 C.ar      1 <0>         0.2220
     13 N2         -2.2504    2.6090   -6.0250 N.ar      1 <0>        -0.5474
     14 S1         -0.1498    1.1739   -5.1191 S.3       1 <0>         0.1642
     15 C12        -0.9970    1.7576   -3.6299 C.3       1 <0>        -0.1923
     16 C13        -0.2681    1.2584   -2.4090 C.2       1 <0>         0.5330
     17 O1          0.7262    0.5752   -2.5335 O.2       1 <0>        -0.5197
     18 N3         -0.7213    1.5711   -1.1789 N.am      1 <0>        -0.7207
     19 C14        -0.0127    1.0858    0.0080 C.3       1 <0>         0.1628
     20 C15        -0.7181    1.5718    1.2479 C.ar      1 <0>        -0.1245
     21 C16        -0.3594    2.7790    1.8183 C.ar      1 <0>        -0.0691
     22 C17        -1.0088    3.2279    2.9525 C.ar      1 <0>        -0.1553
     23 C18        -2.0119    2.4633    3.5237 C.ar      1 <0>         0.1097
     24 C19        -2.3667    1.2519    2.9546 C.ar      1 <0>        -0.1553
     25 C20        -1.7194    0.8075    1.8173 C.ar      1 <0>        -0.0691
     26 F1         -2.6442    2.8989    4.6352 F         1 <0>        -0.1362
     27 C21         0.2325    0.9082   -8.1957 C.2       1 <0>         0.5699
     28 O2          0.9994    0.3828   -7.4108 O.2       1 <0>        -0.4632
     29 N4          0.4106    0.7847   -9.5301 N.am      1 <0>        -0.5573
     30 C22        -0.4325    1.3629  -10.4002 C.2       1 <0>         0.7093
     31 O3         -0.2275    1.2206  -11.5899 O.2       1 <0>        -0.5223
     32 N5         -1.4940    2.0921  -10.0135 N.am      1 <0>        -0.5229
     33 C23        -2.3690    2.6926  -11.0235 C.3       1 <0>         0.0851
     34 C24         1.5442    0.0066  -10.0357 C.3       1 <0>         0.0769
     35 H1         -7.2716    7.3187   -5.1916 H         1 <0>         0.0767
     36 H2         -8.3574    6.1941   -6.0427 H         1 <0>         0.0709
     37 H3         -7.9343    5.9042   -4.3383 H         1 <0>         0.0706
     38 H4         -5.7575    5.0296   -3.7293 H         1 <0>         0.1304
     39 H5         -3.8147    3.6925   -4.4287 H         1 <0>         0.1366
     40 H6         -4.8288    4.3979   -8.5330 H         1 <0>         0.1389
     41 H7         -6.7715    5.7249   -7.8145 H         1 <0>         0.1309
     42 H8         -2.0196    1.3803   -3.6222 H         1 <0>         0.1277
     43 H9         -1.0118    2.8475   -3.6239 H         1 <0>         0.1275
     44 H10        -1.5165    2.1175   -1.0793 H         1 <0>         0.4053
     45 H11         0.0021   -0.0041    0.0020 H         1 <0>         0.0827
     46 H12         1.0099    1.4631    0.0003 H         1 <0>         0.0827
     47 H13         0.4258    3.3733    1.3749 H         1 <0>         0.1361
     48 H14        -0.7313    4.1730    3.3956 H         1 <0>         0.1391
     49 H15        -3.1491    0.6548    3.3991 H         1 <0>         0.1391
     50 H16        -1.9962   -0.1372    1.3730 H         1 <0>         0.1361
     51 H17        -2.0040    3.6885  -11.2746 H         1 <0>         0.0782
     52 H18        -2.3716    2.0702  -11.9183 H         1 <0>         0.0971
     53 H19        -3.3825    2.7658  -10.6290 H         1 <0>         0.0990
     54 H20         1.5328    0.0139  -11.1256 H         1 <0>         0.1057
     55 H21         2.4753    0.4472   -9.6791 H         1 <0>         0.0842
     56 H22         1.4681   -1.0204   -9.6784 H         1 <0>         0.0843
@<TRIPOS>BOND
     1    1    2 1
     2    1   35 1
     3    1   36 1
     4    1   37 1
     5    2    7 ar
     6    2    3 ar
     7    3    4 ar
     8    3   38 1
     9    4    5 ar
    10    4   39 1
    11    5    6 ar
    12    5    8 1
    13    6    7 ar
    14    6   40 1
    15    7   41 1
    16    8   13 ar
    17    8    9 ar
    18    9   10 ar
    19   10   32 1
    20   10   11 ar
    21   11   12 ar
    22   11   27 1
    23   12   13 ar
    24   12   14 1
    25   14   15 1
    26   15   16 1
    27   15   42 1
    28   15   43 1
    29   16   17 2
    30   16   18 am
    31   18   19 1
    32   18   44 1
    33   19   20 1
    34   19   45 1
    35   19   46 1
    36   20   25 ar
    37   20   21 ar
    38   21   22 ar
    39   21   47 1
    40   22   23 ar
    41   22   48 1
    42   23   24 ar
    43   23   26 1
    44   24   25 ar
    45   24   49 1
    46   25   50 1
    47   27   28 2
    48   27   29 am
    49   29   30 am
    50   29   34 1
    51   30   31 2
    52   30   32 am
    53   32   33 1
    54   33   51 1
    55   33   52 1
    56   33   53 1
    57   34   54 1
    58   34   55 1
    59   34   56 1
@<TRIPOS>MOLECULE
ZINC13567470
   58    61     0     0     0
SMALL
USER_CHARGES
(5R)-2-benzylsulfanyl-1-methyl-5-(2,3,4-trimethoxyphenyl)-6,8-dihydro-5H-pyrido[5,6-e]pyrimidine-4,7-dione
@<TRIPOS>ATOM
      1 C1         -3.5410    3.1463   -0.7501 C.3       1 <0>         0.0453
      2 N1         -2.3648    3.9095   -0.3254 N.pl3     1 <0>        -0.5050
      3 C2         -1.2172    3.2538    0.0344 C.2       1 <0>         0.4095
      4 C3         -0.1352    3.9798    0.4261 C.2       1 <0>        -0.2793
      5 C4         -0.2244    5.3867    0.4505 C.2       1 <0>         0.5329
      6 O1          0.7353    6.0588    0.7990 O.2       1 <0>        -0.4880
      7 N2         -1.3718    5.9824    0.0883 N.2       1 <0>        -0.5759
      8 C5         -2.4136    5.2707   -0.2893 C.2       1 <0>         0.3972
      9 S1         -3.8994    6.0947   -0.7562 S.3       1 <0>         0.0130
     10 C6         -3.3922    7.8158   -0.5188 C.3       1 <0>        -0.0591
     11 C7         -4.5382    8.7300   -0.8681 C.ar      1 <0>        -0.0897
     12 C8         -4.6797    9.1979   -2.1611 C.ar      1 <0>        -0.0973
     13 C9         -5.7340   10.0322   -2.4827 C.ar      1 <0>        -0.1195
     14 C10        -6.6405   10.4073   -1.5088 C.ar      1 <0>        -0.1078
     15 C11        -6.4957    9.9439   -0.2145 C.ar      1 <0>        -0.1196
     16 C12        -5.4447    9.1051    0.1058 C.ar      1 <0>        -0.0978
     17 C13         1.1393    3.2882    0.8282 C.3       1 <0>         0.0289
     18 H1          1.9844    3.9545    0.6551 H         1 <0>         0.1261
     19 C14         1.3136    2.0163   -0.0041 C.3       1 <0>        -0.1383
     20 C15         0.0245    1.2377   -0.0127 C.2       1 <0>         0.5392
     21 O2          0.0541    0.0257   -0.0320 O.2       1 <0>        -0.4923
     22 N3         -1.1601    1.8764   -0.0048 N.am      1 <0>        -0.6660
     23 C16         1.0754    2.9272    2.2900 C.ar      1 <0>        -0.1247
     24 C17         0.0090    2.1921    2.7735 C.ar      1 <0>        -0.0750
     25 C18        -0.0514    1.8536    4.1122 C.ar      1 <0>        -0.1986
     26 C19         0.9527    2.2603    4.9782 C.ar      1 <0>         0.1234
     27 C20         2.0233    3.0042    4.4972 C.ar      1 <0>         0.0504
     28 C21         2.0832    3.3377    3.1491 C.ar      1 <0>         0.1398
     29 O3          3.1291    4.0652    2.6735 O.3       1 <0>        -0.3175
     30 C22         4.2257    3.3374    2.1169 C.3       1 <0>         0.0357
     31 O4          3.0103    3.4056    5.3439 O.3       1 <0>        -0.3180
     32 C23         2.7916    4.6188    6.0665 C.3       1 <0>         0.0379
     33 O5          0.8897    1.9311    6.2962 O.3       1 <0>        -0.3032
     34 C24        -0.2395    1.1649    6.7203 C.3       1 <0>         0.0240
     35 H2         -3.5056    2.9946   -1.8290 H         1 <0>         0.0960
     36 H3         -3.5477    2.1793   -0.2473 H         1 <0>         0.0911
     37 H4         -4.4449    3.6972   -0.4902 H         1 <0>         0.1076
     38 H5         -3.1082    7.9707    0.5221 H         1 <0>         0.1141
     39 H6         -2.5419    8.0363   -1.1641 H         1 <0>         0.1148
     40 H7         -3.9690    8.9085   -2.9210 H         1 <0>         0.1271
     41 H8         -5.8473   10.3940   -3.4939 H         1 <0>         0.1268
     42 H9         -7.4620   11.0621   -1.7592 H         1 <0>         0.1254
     43 H10        -7.2040   10.2370    0.5464 H         1 <0>         0.1267
     44 H11        -5.3316    8.7430    1.1170 H         1 <0>         0.1267
     45 H12         2.1044    1.4042    0.4297 H         1 <0>         0.1196
     46 H13         1.5822    2.2850   -1.0257 H         1 <0>         0.1178
     47 H14        -1.9825    1.3624   -0.0229 H         1 <0>         0.4132
     48 H15        -0.7768    1.8780    2.1026 H         1 <0>         0.1225
     49 H16        -0.8838    1.2754    4.4852 H         1 <0>         0.1357
     50 H17         5.0268    4.0295    1.8572 H         1 <0>         0.0988
     51 H18         4.5914    2.6161    2.8477 H         1 <0>         0.0523
     52 H19         3.8954    2.8114    1.2211 H         1 <0>         0.0461
     53 H20         3.6112    4.7770    6.7675 H         1 <0>         0.0943
     54 H21         2.7446    5.4543    5.3680 H         1 <0>         0.0500
     55 H22         1.8522    4.5506    6.6152 H         1 <0>         0.0449
     56 H23        -0.1662    0.9717    7.7905 H         1 <0>         0.1042
     57 H24        -1.1541    1.7206    6.5132 H         1 <0>         0.0558
     58 H25        -0.2595    0.2181    6.1807 H         1 <0>         0.0578
@<TRIPOS>BOND
     1    1    2 1
     2    1   35 1
     3    1   36 1
     4    1   37 1
     5    2    8 1
     6    2    3 1
     7    3   22 1
     8    3    4 2
     9    4    5 1
    10    4   17 1
    11    5    6 2
    12    5    7 1
    13    7    8 2
    14    8    9 1
    15    9   10 1
    16   10   11 1
    17   10   38 1
    18   10   39 1
    19   11   16 ar
    20   11   12 ar
    21   12   13 ar
    22   12   40 1
    23   13   14 ar
    24   13   41 1
    25   14   15 ar
    26   14   42 1
    27   15   16 ar
    28   15   43 1
    29   16   44 1
    30   17   18 1
    31   17   19 1
    32   17   23 1
    33   19   20 1
    34   19   45 1
    35   19   46 1
    36   20   21 2
    37   20   22 am
    38   22   47 1
    39   23   28 ar
    40   23   24 ar
    41   24   25 ar
    42   24   48 1
    43   25   26 ar
    44   25   49 1
    45   26   27 ar
    46   26   33 1
    47   27   28 ar
    48   27   31 1
    49   28   29 1
    50   29   30 1
    51   30   50 1
    52   30   51 1
    53   30   52 1
    54   31   32 1
    55   32   53 1
    56   32   54 1
    57   32   55 1
    58   33   34 1
    59   34   56 1
    60   34   57 1
    61   34   58 1
@<TRIPOS>MOLECULE
ZINC24283091
   73    78     0     0     0
SMALL
USER_CHARGES
N-[4-[(2S)-2-(morpholine-4-carbonyl)-2,3-dihydro-1,4-benzoxazin-4-yl]-4-oxo-butyl]adamantane-1-carboxamide
@<TRIPOS>ATOM
      1 C1         -6.8395   -4.1960   -0.3020 C.ar      1 <0>        -0.1273
      2 C2         -6.9985   -5.4675   -0.8217 C.ar      1 <0>        -0.1007
      3 C3         -5.8950   -6.2600   -1.0754 C.ar      1 <0>        -0.1222
      4 C4         -4.6205   -5.7820   -0.8087 C.ar      1 <0>         0.0927
      5 C5         -4.4638   -4.5018   -0.2816 C.ar      1 <0>         0.0721
      6 C6         -5.5730   -3.7108   -0.0336 C.ar      1 <0>        -0.1168
      7 N1         -3.1733   -4.0108   -0.0194 N.am      1 <0>        -0.5554
      8 C7         -2.0616   -4.9773   -0.0131 C.3       1 <0>         0.0723
      9 C8         -2.2696   -5.9308   -1.1984 C.3       1 <0>         0.0637
     10 H1         -2.2887   -5.4000   -2.1617 H         1 <0>         0.1073
     11 O1         -3.5411   -6.5690   -1.0586 O.3       1 <0>        -0.2854
     12 C9         -1.1800   -6.9719   -1.2062 C.2       1 <0>         0.5287
     13 O2         -1.4478   -8.1316   -0.9731 O.2       1 <0>        -0.4980
     14 N2          0.0919   -6.6143   -1.4724 N.am      1 <0>        -0.6127
     15 C10         0.4261   -5.2334   -1.8554 C.3       1 <0>         0.0577
     16 C11         1.5825   -4.7551   -0.9628 C.3       1 <0>         0.0437
     17 O3          2.6478   -5.7064   -1.0258 O.3       1 <0>        -0.3711
     18 C12         2.3051   -7.0026   -0.5296 C.3       1 <0>         0.0452
     19 C13         1.1865   -7.5947   -1.3945 C.3       1 <0>         0.0764
     20 C14        -2.9610   -2.7022    0.2235 C.2       1 <0>         0.5212
     21 O4         -3.9003   -1.9377    0.2903 O.2       1 <0>        -0.5043
     22 C15        -1.5567   -2.1889    0.4120 C.3       1 <0>        -0.1404
     23 C16        -1.5847   -0.6653    0.5491 C.3       1 <0>        -0.1176
     24 C17        -0.1590   -0.1442    0.7405 C.3       1 <0>         0.1207
     25 N3         -0.1858    1.3147    0.8717 N.am      1 <0>        -0.7407
     26 C18         0.9630    1.9965    1.0500 C.2       1 <0>         0.5251
     27 O5          2.0190    1.4023    1.1017 O.2       1 <0>        -0.5409
     28 C19         0.9354    3.4971    1.1850 C.3       1 <0>        -0.0679
     29 C20         0.0840    3.8847    2.3956 C.3       1 <0>        -0.0996
     30 C21         0.0559    5.4083    2.5327 C.3       1 <0>        -0.0847
     31 C22         1.4817    5.9295    2.7240 C.3       1 <0>        -0.1113
     32 C23         2.3332    5.5419    1.5134 C.3       1 <0>        -0.0873
     33 C24         2.3612    4.0183    1.3764 C.3       1 <0>        -0.0882
     34 C25         1.7309    6.1567    0.2484 C.3       1 <0>        -0.1112
     35 C26         0.3052    5.6356    0.0571 C.3       1 <0>        -0.0847
     36 C27        -0.5463    6.0232    1.2677 C.3       1 <0>        -0.1105
     37 C28         0.3332    4.1120   -0.0800 C.3       1 <0>        -0.0994
     38 H2         -7.7055   -3.5815   -0.1051 H         1 <0>         0.1305
     39 H3         -7.9893   -5.8428   -1.0307 H         1 <0>         0.1328
     40 H4         -6.0251   -7.2520   -1.4819 H         1 <0>         0.1375
     41 H5         -5.4489   -2.7177    0.3722 H         1 <0>         0.1731
     42 H6         -1.1076   -4.4395   -0.1162 H         1 <0>         0.1144
     43 H7         -2.0669   -5.5361    0.9344 H         1 <0>         0.1026
     44 H8          0.7291   -5.2092   -2.9126 H         1 <0>         0.0917
     45 H9         -0.4542   -4.5897   -1.7115 H         1 <0>         0.0907
     46 H10         1.9391   -3.7768   -1.3176 H         1 <0>         0.1146
     47 H11         1.2304   -4.6626    0.0752 H         1 <0>         0.0593
     48 H12         3.1887   -7.6564   -0.5710 H         1 <0>         0.1145
     49 H13         1.9605   -6.9174    0.5115 H         1 <0>         0.0601
     50 H14         0.8135   -8.5255   -0.9422 H         1 <0>         0.1075
     51 H15         1.5638   -7.8042   -2.4063 H         1 <0>         0.0840
     52 H16        -1.1237   -2.6310    1.3214 H         1 <0>         0.1057
     53 H17        -0.9445   -2.4675   -0.4584 H         1 <0>         0.0992
     54 H18        -2.0177   -0.2232   -0.3604 H         1 <0>         0.0812
     55 H19        -2.1969   -0.3866    1.4195 H         1 <0>         0.0836
     56 H20         0.2739   -0.5863    1.6500 H         1 <0>         0.0671
     57 H21         0.4532   -0.4229   -0.1299 H         1 <0>         0.0669
     58 H22        -1.1436    1.8536    0.8247 H         1 <0>         0.4213
     59 H23        -0.9410    3.5100    2.2580 H         1 <0>         0.0663
     60 H24         0.5170    3.4427    3.3051 H         1 <0>         0.0675
     61 H25        -0.5563    5.6869    3.4031 H         1 <0>         0.0745
     62 H26         1.4615    7.0249    2.8225 H         1 <0>         0.0646
     63 H27         1.9147    5.4875    3.6335 H         1 <0>         0.0632
     64 H28         3.3582    5.9166    1.6510 H         1 <0>         0.0742
     65 H29         2.7942    3.5763    2.2859 H         1 <0>         0.0688
     66 H30         2.9734    3.7396    0.5060 H         1 <0>         0.0689
     67 H31         1.7108    7.2521    0.3469 H         1 <0>         0.0646
     68 H32         2.3430    5.8780   -0.6220 H         1 <0>         0.0632
     69 H33        -0.1278    6.0777   -0.8523 H         1 <0>         0.0745
     70 H34        -1.5713    5.6485    1.1301 H         1 <0>         0.0637
     71 H35        -0.5664    7.1186    1.3662 H         1 <0>         0.0654
     72 H36         0.9454    3.8333   -0.9504 H         1 <0>         0.0675
     73 H37        -0.6918    3.7373   -0.2177 H         1 <0>         0.0662
@<TRIPOS>BOND
     1    1    6 ar
     2    1    2 ar
     3    1   38 1
     4    2    3 ar
     5    2   39 1
     6    3    4 ar
     7    3   40 1
     8    4   11 1
     9    4    5 ar
    10    5    6 ar
    11    5    7 1
    12    6   41 1
    13    7    8 1
    14    7   20 am
    15    8    9 1
    16    8   42 1
    17    8   43 1
    18    9   10 1
    19    9   11 1
    20    9   12 1
    21   12   13 2
    22   12   14 am
    23   14   19 1
    24   14   15 1
    25   15   16 1
    26   15   44 1
    27   15   45 1
    28   16   17 1
    29   16   46 1
    30   16   47 1
    31   17   18 1
    32   18   19 1
    33   18   48 1
    34   18   49 1
    35   19   50 1
    36   19   51 1
    37   20   21 2
    38   20   22 1
    39   22   23 1
    40   22   52 1
    41   22   53 1
    42   23   24 1
    43   23   54 1
    44   23   55 1
    45   24   25 1
    46   24   56 1
    47   24   57 1
    48   25   26 am
    49   25   58 1
    50   26   27 2
    51   26   28 1
    52   28   33 1
    53   28   37 1
    54   28   29 1
    55   29   30 1
    56   29   59 1
    57   29   60 1
    58   30   36 1
    59   30   31 1
    60   30   61 1
    61   31   32 1
    62   31   62 1
    63   31   63 1
    64   32   33 1
    65   32   34 1
    66   32   64 1
    67   33   65 1
    68   33   66 1
    69   34   35 1
    70   34   67 1
    71   34   68 1
    72   35   36 1
    73   35   37 1
    74   35   69 1
    75   36   70 1
    76   36   71 1
    77   37   72 1
    78   37   73 1
@<TRIPOS>MOLECULE
ZINC08619025
   54    57     0     0     0
SMALL
USER_CHARGES

@<TRIPOS>ATOM
      1 C1         -1.4251    1.0138   -1.1122 C.3       1 <0>         0.0263
      2 O1         -0.9357   -0.2777   -0.7453 O.3       1 <0>        -0.3131
      3 C2          0.1424   -0.7466   -1.4290 C.ar      1 <0>         0.1153
      4 C3          0.7196    0.0222   -2.4266 C.ar      1 <0>        -0.1797
      5 C4          1.8158   -0.4551   -3.1207 C.ar      1 <0>        -0.0792
      6 C5          2.3397   -1.7006   -2.8220 C.ar      1 <0>        -0.0546
      7 C6          1.7686   -2.4738   -1.8278 C.ar      1 <0>        -0.0753
      8 C7          0.6720   -1.9981   -1.1238 C.ar      1 <0>         0.1253
      9 N1          0.0953   -2.7770   -0.1118 N.am      1 <0>        -0.6561
     10 C8          0.0602   -4.1190   -0.2316 C.2       1 <0>         0.5001
     11 O2          0.5987   -4.6579   -1.1754 O.2       1 <0>        -0.5066
     12 C9         -0.6481   -4.9499    0.8071 C.3       1 <0>         0.0730
     13 N2         -0.5444   -6.3675    0.4523 N.am      1 <0>        -0.5260
     14 C10        -1.5516   -6.8891   -0.3552 C.ar      1 <0>         0.1472
     15 C11        -2.3125   -6.0302   -1.1407 C.ar      1 <0>        -0.0330
     16 C12        -3.3187   -6.5299   -1.9438 C.ar      1 <0>        -0.6476
     17 C13        -3.5809   -7.8874   -1.9763 C.ar      1 <0>        -0.0240
     18 C14        -2.8305   -8.7536   -1.2022 C.ar      1 <0>        -0.0766
     19 C15        -1.8190   -8.2582   -0.3967 C.ar      1 <0>        -0.0789
     20 S1         -0.8467   -9.3537    0.5879 S.3       1 <0>        -0.0586
     21 C16         0.7527   -8.4927    0.6733 C.3       1 <0>        -0.1289
     22 C17         0.5058   -7.0309    0.9284 C.2       1 <0>         0.5287
     23 O3          1.3057   -6.4249    1.6098 O.2       1 <0>        -0.5018
     24 S2         -4.2756   -5.4302   -2.9335 S.o2      1 <0>         2.7067
     25 O4         -5.5140   -6.0811   -3.1826 O.2       1 <0>        -0.9445
     26 O5         -4.1970   -4.1537   -2.3142 O.2       1 <0>        -0.9468
     27 N3         -3.5096   -5.2949   -4.3955 N.pl3     1 <0>        -1.0095
     28 C18        -2.4770   -4.3044   -4.7334 C.3       1 <0>         0.1183
     29 C19        -2.0773   -4.5429   -6.2048 C.3       1 <0>        -0.1283
     30 C20        -3.3099   -5.2867   -6.7834 C.3       1 <0>        -0.1286
     31 C21        -3.7456   -6.1518   -5.5717 C.3       1 <0>         0.1116
     32 Cl1         3.7164   -2.2938   -3.6975 Cl        1 <0>        -0.0621
     33 H1         -0.6398    1.7552   -0.9648 H         1 <0>         0.0589
     34 H2         -1.7242    1.0048   -2.1603 H         1 <0>         0.0598
     35 H3         -2.2845    1.2665   -0.4912 H         1 <0>         0.1052
     36 H4          0.3129    0.9945   -2.6624 H         1 <0>         0.1442
     37 H5          2.2642    0.1455   -3.8983 H         1 <0>         0.1395
     38 H6          2.1787   -3.4459   -1.5968 H         1 <0>         0.1562
     39 H7         -0.2786   -2.3504    0.6750 H         1 <0>         0.4196
     40 H8         -0.1873   -4.7845    1.7809 H         1 <0>         0.1385
     41 H9         -1.6985   -4.6617    0.8485 H         1 <0>         0.1269
     42 H10        -2.1161   -4.9684   -1.1224 H         1 <0>         0.1411
     43 H11        -4.3709   -8.2706   -2.6052 H         1 <0>         0.1533
     44 H12        -3.0335   -9.8141   -1.2254 H         1 <0>         0.1517
     45 H13         1.3501   -8.9109    1.4835 H         1 <0>         0.1569
     46 H14         1.2821   -8.6105   -0.2722 H         1 <0>         0.1322
     47 H15        -2.8770   -3.2972   -4.6165 H         1 <0>         0.0738
     48 H16        -1.6094   -4.4382   -4.0872 H         1 <0>         0.0664
     49 H17        -1.9215   -3.5954   -6.7205 H         1 <0>         0.0834
     50 H18        -1.1862   -5.1676   -6.2659 H         1 <0>         0.0776
     51 H19        -4.0928   -4.5835   -7.0674 H         1 <0>         0.0791
     52 H20        -3.0262   -5.9150   -7.6278 H         1 <0>         0.0859
     53 H21        -3.1395   -7.0556   -5.5103 H         1 <0>         0.0703
     54 H22        -4.8025   -6.4072   -5.6490 H         1 <0>         0.0871
@<TRIPOS>BOND
     1    1    2 1
     2    1   33 1
     3    1   34 1
     4    1   35 1
     5    2    3 1
     6    3    8 ar
     7    3    4 ar
     8    4    5 ar
     9    4   36 1
    10    5    6 ar
    11    5   37 1
    12    6    7 ar
    13    6   32 1
    14    7    8 ar
    15    7   38 1
    16    8    9 1
    17    9   10 am
    18    9   39 1
    19   10   11 2
    20   10   12 1
    21   12   13 1
    22   12   40 1
    23   12   41 1
    24   13   22 am
    25   13   14 1
    26   14   19 ar
    27   14   15 ar
    28   15   16 ar
    29   15   42 1
    30   16   17 ar
    31   16   24 1
    32   17   18 ar
    33   17   43 1
    34   18   19 ar
    35   18   44 1
    36   19   20 1
    37   20   21 1
    38   21   22 1
    39   21   45 1
    40   21   46 1
    41   22   23 2
    42   24   25 2
    43   24   26 2
    44   24   27 1
    45   27   31 1
    46   27   28 1
    47   28   29 1
    48   28   47 1
    49   28   48 1
    50   29   30 1
    51   29   49 1
    52   29   50 1
    53   30   31 1
    54   30   51 1
    55   30   52 1
    56   31   53 1
    57   31   54 1
@<TRIPOS>MOLECULE
ZINC20154761
   47    50     0     0     0
SMALL
USER_CHARGES

@<TRIPOS>ATOM
      1 C1          0.0530    1.1256    0.1487 C.3       1 <0>         0.0235
      2 O1         -0.0182   -0.3016    0.1447 O.3       1 <0>        -0.3069
      3 C2         -1.2587   -0.8578    0.1188 C.ar      1 <0>         0.1233
      4 C3         -2.3769   -0.0489    0.0920 C.ar      1 <0>        -0.1612
      5 C4         -3.6540   -0.6262    0.0653 C.ar      1 <0>        -0.0497
      6 C5         -3.7873   -2.0219    0.0659 C.ar      1 <0>        -0.0755
      7 C6         -2.6658   -2.8195    0.0928 C.ar      1 <0>        -0.0793
      8 C7         -1.4005   -2.2457    0.1135 C.ar      1 <0>         0.0811
      9 O2         -0.2982   -3.0386    0.1338 O.3       1 <0>        -0.2798
     10 C8          0.2481   -3.3318    1.3302 C.2       1 <0>         0.5127
     11 O3         -0.2978   -2.9682    2.3529 O.2       1 <0>        -0.4858
     12 C9          1.5096   -4.0947    1.3982 C.ar      1 <0>        -0.1366
     13 C10         2.1426   -4.5092    0.2237 C.ar      1 <0>        -0.0288
     14 C11         3.3207   -5.2209    0.2932 C.ar      1 <0>        -0.1663
     15 C12         3.8779   -5.5258    1.5259 C.ar      1 <0>         0.1393
     16 C13         3.2540   -5.1170    2.6949 C.ar      1 <0>        -0.1652
     17 C14         2.0784   -4.4002    2.6373 C.ar      1 <0>        -0.0224
     18 F1          5.0328   -6.2242    1.5882 F         1 <0>        -0.1293
     19 C15        -4.8455    0.2260    0.0372 C.2       1 <0>         0.0586
     20 C16        -5.9459   -0.1536   -0.6967 C.2       1 <0>        -0.2560
     21 C17        -7.2411    0.5819   -0.6121 C.2       1 <0>         0.4450
     22 N1         -7.3256    1.8669   -0.3990 N.2       1 <0>        -0.6438
     23 N2         -8.3642   -0.2517   -0.7860 N.pl3     1 <0>        -0.4900
     24 C18        -8.2005   -1.4413   -1.4673 C.2       1 <0>         0.3125
     25 N3         -7.0659   -1.9469   -1.8991 N.2       1 <0>        -0.5404
     26 C19        -5.9087   -1.3141   -1.6214 C.2       1 <0>         0.5382
     27 O4         -4.8560   -1.6870   -2.1135 O.2       1 <0>        -0.4349
     28 S1         -9.7519   -2.0424   -1.5706 S.3       1 <0>         0.3997
     29 N4        -10.5599   -0.8733   -0.6819 N.2       1 <0>        -0.4880
     30 C20        -9.6307   -0.0157   -0.3589 C.2       1 <0>         0.3055
     31 S2        -10.0100    1.4095    0.6053 S.3       1 <0>         0.0928
     32 C21       -11.7919    1.2687    0.9143 C.3       1 <0>        -0.1693
     33 H1          1.0972    1.4373    0.1702 H         1 <0>         0.1059
     34 H2         -0.4241    1.5156   -0.7504 H         1 <0>         0.0598
     35 H3         -0.4600    1.5125    1.0292 H         1 <0>         0.0586
     36 H4         -2.2681    1.0256    0.0920 H         1 <0>         0.1435
     37 H5         -4.7693   -2.4708    0.0458 H         1 <0>         0.1288
     38 H6         -2.7696   -3.8945    0.0936 H         1 <0>         0.1450
     39 H7          1.7093   -4.2726   -0.7369 H         1 <0>         0.1512
     40 H8          3.8107   -5.5421   -0.6141 H         1 <0>         0.1480
     41 H9          3.6925   -5.3572    3.6522 H         1 <0>         0.1487
     42 H10         1.5955   -4.0787    3.5482 H         1 <0>         0.1495
     43 H11        -4.8601    1.1522    0.5926 H         1 <0>         0.1469
     44 H12        -6.5191    2.3939   -0.2865 H         1 <0>         0.3752
     45 H13       -12.3260    1.2617   -0.0358 H         1 <0>         0.0974
     46 H14       -11.9954    0.3428    1.4523 H         1 <0>         0.0957
     47 H15       -12.1251    2.1171    1.5121 H         1 <0>         0.1227
@<TRIPOS>BOND
     1    1    2 1
     2    1   33 1
     3    1   34 1
     4    1   35 1
     5    2    3 1
     6    3    8 ar
     7    3    4 ar
     8    4    5 ar
     9    4   36 1
    10    5    6 ar
    11    5   19 1
    12    6    7 ar
    13    6   37 1
    14    7    8 ar
    15    7   38 1
    16    8    9 1
    17    9   10 1
    18   10   11 2
    19   10   12 1
    20   12   17 ar
    21   12   13 ar
    22   13   14 ar
    23   13   39 1
    24   14   15 ar
    25   14   40 1
    26   15   16 ar
    27   15   18 1
    28   16   17 ar
    29   16   41 1
    30   17   42 1
    31   19   20 2
    32   19   43 1
    33   20   26 1
    34   20   21 1
    35   21   22 2
    36   21   23 1
    37   22   44 1
    38   23   30 1
    39   23   24 1
    40   24   25 2
    41   24   28 1
    42   25   26 1
    43   26   27 2
    44   28   29 1
    45   29   30 2
    46   30   31 1
    47   31   32 1
    48   32   45 1
    49   32   46 1
    50   32   47 1
@<TRIPOS>MOLECULE
ZINC00671033
   54    56     0     0     0
SMALL
USER_CHARGES
ethyl 2-[5-bromo-2-methoxy-4-[[2,4,6-trioxo-1-(p-tolyl)hexahydropyrimidin-5-ylidene]methyl]phenoxy]acetate
@<TRIPOS>ATOM
      1 C1        -12.3609    1.1683    0.8656 C.3       1 <0>        -0.1539
      2 C2        -11.0958    2.0221    0.7588 C.3       1 <0>         0.0640
      3 O1         -9.9340    1.1563    0.6649 O.3       1 <0>        -0.3543
      4 C3         -8.7358    1.7530    0.5643 C.2       1 <0>         0.4647
      5 O2         -8.6604    2.9589    0.5549 O.2       1 <0>        -0.4777
      6 C4         -7.4848    0.9189    0.4629 C.3       1 <0>         0.0621
      7 O3         -6.3465    1.7774    0.3666 O.3       1 <0>        -0.2726
      8 C5         -5.1315    1.1808    0.2676 C.ar      1 <0>         0.1404
      9 C6         -5.0397   -0.2057    0.2635 C.ar      1 <0>        -0.1603
     10 C7         -3.8104   -0.8180    0.1625 C.ar      1 <0>        -0.0497
     11 C8         -2.6459   -0.0392    0.0637 C.ar      1 <0>        -0.0784
     12 C9         -2.7419    1.3612    0.0739 C.ar      1 <0>        -0.0866
     13 C10        -3.9789    1.9627    0.1698 C.ar      1 <0>         0.1196
     14 O4         -4.0759    3.3193    0.1748 O.3       1 <0>        -0.2944
     15 C11        -2.8707    4.0567   -0.0390 C.3       1 <0>         0.0230
     16 C12        -1.3385   -0.6843   -0.0433 C.2       1 <0>         0.1269
     17 C13        -0.3035   -0.2902    0.7841 C.2       1 <0>        -0.2690
     18 C14         1.0779   -0.7648    0.5702 C.2       1 <0>         0.5720
     19 O5          1.3445   -1.5199   -0.3454 O.2       1 <0>        -0.4744
     20 N1          2.0365   -0.3375    1.4177 N.am      1 <0>        -0.6604
     21 C15         1.7566    0.4945    2.4305 C.2       1 <0>         0.7095
     22 O6          2.6665    0.8414    3.1577 O.2       1 <0>        -0.5082
     23 N2          0.5277    0.9654    2.6842 N.am      1 <0>        -0.5126
     24 C16        -0.5304    0.6240    1.9202 C.2       1 <0>         0.5586
     25 O7         -1.6401    1.0618    2.1581 O.2       1 <0>        -0.4514
     26 C17         0.3374    1.8322    3.7688 C.ar      1 <0>         0.1130
     27 C18        -0.4375    1.4340    4.8498 C.ar      1 <0>        -0.0848
     28 C19        -0.6193    2.2888    5.9194 C.ar      1 <0>        -0.1105
     29 C20        -0.0392    3.5440    5.9096 C.ar      1 <0>        -0.0681
     30 C21         0.7288    3.9454    4.8320 C.ar      1 <0>        -0.1113
     31 C22         0.9185    3.0931    3.7618 C.ar      1 <0>        -0.0849
     32 C23        -0.2438    4.4761    7.0759 C.3       1 <0>        -0.1191
     33 Br1        -3.6904   -2.7052    0.1561 Br        1 <0>        -0.0256
     34 H1        -12.3021    0.5414    1.7554 H         1 <0>         0.0685
     35 H2        -13.2330    1.8183    0.9361 H         1 <0>         0.0837
     36 H3        -12.4488    0.5369   -0.0185 H         1 <0>         0.0685
     37 H4        -11.0079    2.6535    1.6429 H         1 <0>         0.0741
     38 H5        -11.1546    2.6490   -0.1310 H         1 <0>         0.0741
     39 H6         -7.5399    0.2876   -0.4240 H         1 <0>         0.1122
     40 H7         -7.3932    0.2921    1.3499 H         1 <0>         0.1118
     41 H8         -5.9350   -0.8049    0.3395 H         1 <0>         0.1535
     42 H9         -1.8498    1.9657    0.0028 H         1 <0>         0.1436
     43 H10        -2.1847    3.8797    0.7894 H         1 <0>         0.0583
     44 H11        -2.4067    3.7325   -0.9705 H         1 <0>         0.0567
     45 H12        -3.1013    5.1203   -0.0989 H         1 <0>         0.1069
     46 H13        -1.1812   -1.4688   -0.7687 H         1 <0>         0.1708
     47 H14         2.9495   -0.6397    1.2914 H         1 <0>         0.4400
     48 H15        -0.8945    0.4555    4.8561 H         1 <0>         0.1257
     49 H16        -1.2188    1.9782    6.7623 H         1 <0>         0.1321
     50 H17         1.1809    4.9262    4.8273 H         1 <0>         0.1323
     51 H18         1.5187    3.4070    2.9206 H         1 <0>         0.1259
     52 H19        -1.1312    5.0850    6.9030 H         1 <0>         0.0753
     53 H20        -0.3749    3.8937    7.9879 H         1 <0>         0.0701
     54 H21         0.6265    5.1239    7.1804 H         1 <0>         0.0702
@<TRIPOS>BOND
     1    1    2 1
     2    1   34 1
     3    1   35 1
     4    1   36 1
     5    2    3 1
     6    2   37 1
     7    2   38 1
     8    3    4 1
     9    4    5 2
    10    4    6 1
    11    6    7 1
    12    6   39 1
    13    6   40 1
    14    7    8 1
    15    8   13 ar
    16    8    9 ar
    17    9   10 ar
    18    9   41 1
    19   10   11 ar
    20   10   33 1
    21   11   12 ar
    22   11   16 1
    23   12   13 ar
    24   12   42 1
    25   13   14 1
    26   14   15 1
    27   15   43 1
    28   15   44 1
    29   15   45 1
    30   16   17 2
    31   16   46 1
    32   17   24 1
    33   17   18 1
    34   18   19 2
    35   18   20 am
    36   20   21 am
    37   20   47 1
    38   21   22 2
    39   21   23 am
    40   23   24 am
    41   23   26 1
    42   24   25 2
    43   26   31 ar
    44   26   27 ar
    45   27   28 ar
    46   27   48 1
    47   28   29 ar
    48   28   49 1
    49   29   30 ar
    50   29   32 1
    51   30   31 ar
    52   30   50 1
    53   31   51 1
    54   32   52 1
    55   32   53 1
    56   32   54 1
@<TRIPOS>MOLECULE
ZINC16927014
   57    61     0     0     0
SMALL
USER_CHARGES
(2R)-2-[(4-benzyl-5-oxo-[1,2,4]triazolo[4,5-a]quinazolin-1-yl)sulfanyl]-N-[(3S)-1,1-dioxothiolan-3-yl]propanamide
@<TRIPOS>ATOM
      1 C1         -1.1811    8.2021   -1.2520 C.3       1 <0>        -0.1468
      2 C2         -0.3759    8.1502    0.0480 C.3       1 <0>        -0.1226
      3 H1         -1.0581    8.0852    0.8956 H         1 <0>         0.1274
      4 C3          0.4606    9.3977    0.1709 C.2       1 <0>         0.5431
      5 O1          1.6140    9.3938   -0.2042 O.2       1 <0>        -0.5139
      6 N1         -0.0730   10.5176    0.6976 N.am      1 <0>        -0.7113
      7 C4          0.7402   11.7303    0.8171 C.3       1 <0>         0.1472
      8 H2          1.7727   11.4539    1.0312 H         1 <0>         0.1164
      9 C5          0.6852   12.5142   -0.5046 C.3       1 <0>        -0.1474
     10 C6          1.2854   13.9270   -0.2556 C.3       1 <0>        -0.5691
     11 S1          0.5654   14.3115    1.3963 S.o2      1 <0>         2.3777
     12 O2         -0.6556   15.0156    1.2159 O.2       1 <0>        -0.9279
     13 O3          1.5774   14.8674    2.2246 O.2       1 <0>        -0.9294
     14 C7          0.1926   12.6046    1.9709 C.3       1 <0>        -0.6004
     15 S2          0.7072    6.6951    0.0306 S.3       1 <0>         0.0901
     16 C8         -0.4097    5.3323    0.0334 C.2       1 <0>         0.2019
     17 N2         -1.7181    5.4084    0.0460 N.2       1 <0>        -0.2807
     18 N3         -2.2284    4.1048    0.0440 N.2       1 <0>        -0.3078
     19 C9         -1.2145    3.2687    0.0303 C.2       1 <0>         0.4656
     20 N4         -0.0633    4.0080    0.0234 N.pl3     1 <0>        -0.4411
     21 C10         1.1809    3.3811    0.0085 C.ar      1 <0>         0.1651
     22 C11         2.3534    4.1213    0.0008 C.ar      1 <0>        -0.1353
     23 C12         3.5737    3.4751   -0.0144 C.ar      1 <0>        -0.0490
     24 C13         3.6383    2.0906   -0.0215 C.ar      1 <0>        -0.1282
     25 C14         2.4822    1.3387   -0.0145 C.ar      1 <0>        -0.0213
     26 C15         1.2445    1.9795    0.0008 C.ar      1 <0>        -0.1601
     27 C16        -0.0144    1.2122    0.0087 C.2       1 <0>         0.5707
     28 O4          0.0021   -0.0041    0.0020 O.2       1 <0>        -0.4845
     29 N5         -1.1846    1.8825    0.0178 N.am      1 <0>        -0.5065
     30 C17        -2.4441    1.1341    0.0201 C.3       1 <0>         0.1538
     31 C18        -2.8691    0.8702    1.4416 C.ar      1 <0>        -0.1246
     32 C19        -2.4571   -0.2827    2.0835 C.ar      1 <0>        -0.0924
     33 C20        -2.8430   -0.5224    3.3890 C.ar      1 <0>        -0.1261
     34 C21        -3.6494    0.3857    4.0493 C.ar      1 <0>        -0.1071
     35 C22        -4.0656    1.5361    3.4057 C.ar      1 <0>        -0.1258
     36 C23        -3.6755    1.7784    2.1018 C.ar      1 <0>        -0.0913
     37 H3         -0.4989    8.2671   -2.0996 H         1 <0>         0.0759
     38 H4         -1.7861    7.2998   -1.3409 H         1 <0>         0.0884
     39 H5         -1.8319    9.0764   -1.2416 H         1 <0>         0.0769
     40 H6         -0.9954   10.5207    0.9976 H         1 <0>         0.4102
     41 H7          1.2696   11.9958   -1.2647 H         1 <0>         0.1090
     42 H8         -0.3494   12.6061   -0.8353 H         1 <0>         0.0943
     43 H9          0.9455   14.6378   -1.0088 H         1 <0>         0.1468
     44 H10         2.3740   13.8919   -0.2126 H         1 <0>         0.1441
     45 H11        -0.8817   12.4621    2.0874 H         1 <0>         0.1471
     46 H12         0.7157   12.3874    2.9022 H         1 <0>         0.1512
     47 H13         2.3124    5.2005    0.0063 H         1 <0>         0.1437
     48 H14         4.4857    4.0536   -0.0204 H         1 <0>         0.1480
     49 H15         4.5993    1.5979   -0.0330 H         1 <0>         0.1469
     50 H16         2.5356    0.2600   -0.0208 H         1 <0>         0.1539
     51 H17        -3.2135    1.7163   -0.4871 H         1 <0>         0.1089
     52 H18        -2.3043    0.1861   -0.4993 H         1 <0>         0.1140
     53 H19        -1.8308   -0.9943    1.5661 H         1 <0>         0.1291
     54 H20        -2.5181   -1.4214    3.8917 H         1 <0>         0.1246
     55 H21        -3.9545    0.1963    5.0678 H         1 <0>         0.1236
     56 H22        -4.6959    2.2455    3.9214 H         1 <0>         0.1243
     57 H23        -4.0010    2.6770    1.5989 H         1 <0>         0.1301
@<TRIPOS>BOND
     1    1    2 1
     2    1   37 1
     3    1   38 1
     4    1   39 1
     5    2    3 1
     6    2    4 1
     7    2   15 1
     8    4    5 2
     9    4    6 am
    10    6    7 1
    11    6   40 1
    12    7    8 1
    13    7   14 1
    14    7    9 1
    15    9   10 1
    16    9   41 1
    17    9   42 1
    18   10   11 1
    19   10   43 1
    20   10   44 1
    21   11   12 2
    22   11   13 2
    23   11   14 1
    24   14   45 1
    25   14   46 1
    26   15   16 1
    27   16   20 1
    28   16   17 2
    29   17   18 1
    30   18   19 2
    31   19   29 1
    32   19   20 1
    33   20   21 1
    34   21   26 ar
    35   21   22 ar
    36   22   23 ar
    37   22   47 1
    38   23   24 ar
    39   23   48 1
    40   24   25 ar
    41   24   49 1
    42   25   26 ar
    43   25   50 1
    44   26   27 1
    45   27   28 2
    46   27   29 am
    47   29   30 1
    48   30   31 1
    49   30   51 1
    50   30   52 1
    51   31   36 ar
    52   31   32 ar
    53   32   33 ar
    54   32   53 1
    55   33   34 ar
    56   33   54 1
    57   34   35 ar
    58   34   55 1
    59   35   36 ar
    60   35   56 1
    61   36   57 1
@<TRIPOS>MOLECULE
ZINC33808764
   61    65     0     0     0
SMALL
USER_CHARGES
(E)-2-cyano-N-(1,5-dimethyl-3-oxo-2-phenyl-pyrazol-4-yl)-3-[1-phenyl-3-(4-pyridyl)pyrazol-4-yl]prop-2-enamide
@<TRIPOS>ATOM
      1 C1         -0.7163    0.5790   -0.2305 C.3       1 <0>        -0.1014
      2 C2         -1.8183    1.0835    0.6652 C.2       1 <0>         0.1809
      3 C3         -2.3368    0.4245    1.7257 C.2       1 <0>        -0.0769
      4 C4         -3.3758    1.2791    2.3016 C.2       1 <0>         0.5441
      5 O1         -4.0680    1.0258    3.2710 O.2       1 <0>        -0.5030
      6 N1         -3.4208    2.4011    1.5537 N.am      1 <0>        -0.3641
      7 N2         -2.4578    2.2891    0.5443 N.pl3     1 <0>        -0.3940
      8 C5         -2.1800    3.2988   -0.4802 C.3       1 <0>         0.0870
      9 C6         -4.2767    3.4885    1.7550 C.ar      1 <0>         0.1553
     10 C7         -4.5816    3.9047    3.0446 C.ar      1 <0>        -0.1097
     11 C8         -5.4223    4.9829    3.2399 C.ar      1 <0>        -0.0932
     12 C9         -5.9702    5.6401    2.1535 C.ar      1 <0>        -0.1244
     13 C10        -5.6732    5.2246    0.8684 C.ar      1 <0>        -0.0987
     14 C11        -4.8283    4.1510    0.6660 C.ar      1 <0>        -0.1458
     15 N3         -1.9491   -0.8478    2.1899 N.am      1 <0>        -0.6436
     16 C12        -1.5874   -1.0140    3.4775 C.2       1 <0>         0.5803
     17 O2         -1.6812   -0.0869    4.2604 O.2       1 <0>        -0.5049
     18 C13        -1.0795   -2.3150    3.9364 C.2       1 <0>        -0.1550
     19 C14        -0.7092   -2.4851    5.2545 C.2       1 <0>         0.1199
     20 C15        -0.3496   -3.8135    5.7471 C.2       1 <0>        -0.2354
     21 C16        -0.6331   -5.0288    5.1443 C.2       1 <0>         0.1036
     22 N4         -0.1237   -6.0004    5.9211 N.pl3     1 <0>        -0.2968
     23 N5          0.4886   -5.4356    7.0431 N.2       1 <0>        -0.2612
     24 C17         0.3793   -4.1279    6.9838 C.2       1 <0>         0.1602
     25 C18         0.8933   -3.1546    7.9757 C.ar      1 <0>         0.0212
     26 C19         1.3897   -1.9111    7.5716 C.ar      1 <0>        -0.1471
     27 C20         1.8534   -1.0326    8.5289 C.ar      1 <0>         0.1076
     28 N6          1.8426   -1.3568    9.8077 N.ar      1 <0>        -0.4753
     29 C21         1.3883   -2.5211   10.2306 C.ar      1 <0>         0.1046
     30 C22         0.9008   -3.4564    9.3414 C.ar      1 <0>        -0.1395
     31 C23        -0.2005   -7.3725    5.6500 C.ar      1 <0>         0.1387
     32 C24        -0.8416   -7.8201    4.5023 C.ar      1 <0>        -0.1325
     33 C25        -0.9119   -9.1734    4.2356 C.ar      1 <0>        -0.0909
     34 C26        -0.3535  -10.0828    5.1151 C.ar      1 <0>        -0.1180
     35 C27         0.2814   -9.6405    6.2612 C.ar      1 <0>        -0.0958
     36 C28         0.3593   -8.2883    6.5311 C.ar      1 <0>        -0.1095
     37 C29        -0.9691   -3.4058    3.0152 C.1       1 <0>         0.2554
     38 N7         -0.8815   -4.2711    2.2844 N.1       1 <0>        -0.4186
     39 H1         -0.3969   -0.4180    0.1071 H         1 <0>         0.0934
     40 H2          0.1372    1.2716   -0.1874 H         1 <0>         0.0902
     41 H3         -1.0849    0.5152   -1.2650 H         1 <0>         0.0877
     42 H4         -2.8445    4.1630   -0.3330 H         1 <0>         0.0989
     43 H5         -2.3547    2.8675   -1.4769 H         1 <0>         0.0845
     44 H6         -1.1322    3.6240   -0.3999 H         1 <0>         0.0847
     45 H7         -4.1581    3.3887    3.8936 H         1 <0>         0.1371
     46 H8         -5.6560    5.3101    4.2422 H         1 <0>         0.1340
     47 H9         -6.6312    6.4799    2.3090 H         1 <0>         0.1297
     48 H10        -6.1022    5.7404    0.0220 H         1 <0>         0.1315
     49 H11        -4.5965    3.8272   -0.3379 H         1 <0>         0.1282
     50 H12        -1.9416   -1.7057    1.5014 H         1 <0>         0.4234
     51 H13        -0.6846   -1.6210    5.9348 H         1 <0>         0.1721
     52 H14        -1.1657   -5.1698    4.2154 H         1 <0>         0.1910
     53 H15         1.4061   -1.6410    6.5260 H         1 <0>         0.1424
     54 H16         2.2349   -0.0684    8.2270 H         1 <0>         0.1649
     55 H17         1.3985   -2.7450   11.2870 H         1 <0>         0.1629
     56 H18         0.5300   -4.4073    9.6945 H         1 <0>         0.1412
     57 H19        -1.2815   -7.1106    3.8172 H         1 <0>         0.1298
     58 H20        -1.4074   -9.5220    3.3416 H         1 <0>         0.1375
     59 H21        -0.4130  -11.1408    4.9062 H         1 <0>         0.1335
     60 H22         0.7166  -10.3532    6.9460 H         1 <0>         0.1367
     61 H23         0.8553   -7.9434    7.4264 H         1 <0>         0.1408
@<TRIPOS>BOND
     1    1    2 1
     2    1   39 1
     3    1   40 1
     4    1   41 1
     5    2    7 1
     6    2    3 2
     7    3    4 1
     8    3   15 1
     9    4    5 2
    10    4    6 am
    11    6    7 1
    12    6    9 1
    13    7    8 1
    14    8   42 1
    15    8   43 1
    16    8   44 1
    17    9   14 ar
    18    9   10 ar
    19   10   11 ar
    20   10   45 1
    21   11   12 ar
    22   11   46 1
    23   12   13 ar
    24   12   47 1
    25   13   14 ar
    26   13   48 1
    27   14   49 1
    28   15   16 am
    29   15   50 1
    30   16   17 2
    31   16   18 1
    32   18   19 2
    33   18   37 1
    34   19   20 1
    35   19   51 1
    36   20   24 1
    37   20   21 2
    38   21   22 1
    39   21   52 1
    40   22   23 1
    41   22   31 1
    42   23   24 2
    43   24   25 1
    44   25   30 ar
    45   25   26 ar
    46   26   27 ar
    47   26   53 1
    48   27   28 ar
    49   27   54 1
    50   28   29 ar
    51   29   30 ar
    52   29   55 1
    53   30   56 1
    54   31   36 ar
    55   31   32 ar
    56   32   33 ar
    57   32   57 1
    58   33   34 ar
    59   33   58 1
    60   34   35 ar
    61   34   59 1
    62   35   36 ar
    63   35   60 1
    64   36   61 1
    65   37   38 3
@<TRIPOS>MOLECULE
ZINC39728892
   55    57     0     0     0
SMALL
USER_CHARGES

@<TRIPOS>ATOM
      1 C1          0.6642   -0.5515    1.1739 C.3       1 <0>        -0.1521
      2 C2          0.1349    0.2558   -0.0131 C.3       1 <0>        -0.0465
      3 C3          0.3582    1.7474    0.2444 C.3       1 <0>        -0.1314
      4 C4          0.8672   -0.1530   -1.2651 C.2       1 <0>        -0.1548
      5 C5          1.9762   -0.9121   -1.1751 C.2       1 <0>         0.0906
      6 N1          2.6659   -1.3796   -2.2231 N.2       1 <0>        -0.4909
      7 C6          2.3506   -1.1139   -3.4531 C.2       1 <0>         0.3879
      8 C7          1.2303   -0.1283   -3.7295 C.3       1 <0>        -0.0683
      9 H1          1.6614    0.7709   -4.1697 H         1 <0>         0.1646
     10 C8          0.3793    0.2608   -2.5391 C.2       1 <0>         0.1777
     11 N2         -0.7253    0.9335   -2.6700 N.2       1 <0>        -0.2781
     12 O1         -1.5475    1.1710   -1.5420 O.3       1 <0>        -0.1845
     13 C9         -2.7283    1.9221   -1.8313 C.3       1 <0>         0.0463
     14 C10        -3.5238    2.1146   -0.5659 C.2       1 <0>         0.5228
     15 O2         -3.1194    1.6539    0.4807 O.2       1 <0>        -0.4893
     16 N3         -4.6846    2.7987   -0.5972 N.am      1 <0>        -0.6641
     17 C11        -5.3692    3.0703    0.5932 C.ar      1 <0>         0.1602
     18 C12        -5.2361    2.2192    1.6822 C.ar      1 <0>        -0.0733
     19 C13        -5.9125    2.4901    2.8555 C.ar      1 <0>        -0.1583
     20 C14        -6.7223    3.6074    2.9470 C.ar      1 <0>        -0.0743
     21 C15        -6.8576    4.4574    1.8650 C.ar      1 <0>        -0.0881
     22 C16        -6.1790    4.1954    0.6896 C.ar      1 <0>        -0.0394
     23 Cl1        -6.3434    5.2668   -0.6664 Cl        1 <0>        -0.0462
     24 C17        -5.7682    1.5665    4.0376 C.3       1 <0>         0.5114
     25 F1         -4.6968    1.9893    4.8317 F         1 <0>        -0.1716
     26 F2         -6.9456    1.5884    4.7929 F         1 <0>        -0.1739
     27 F3         -5.5283    0.2645    3.5856 F         1 <0>        -0.1724
     28 C18         0.3528   -0.7842   -4.7607 C.2       1 <0>         0.5271
     29 O3         -0.8394   -0.5651   -4.7799 O.2       1 <0>        -0.4471
     30 N4          0.9075   -1.6183   -5.6637 N.am      1 <0>        -0.5731
     31 C19         2.2027   -1.9709   -5.6133 C.2       1 <0>         0.7142
     32 O4          2.7008   -2.5445   -6.5616 O.2       1 <0>        -0.5113
     33 N5          2.9635   -1.7003   -4.5284 N.am      1 <0>        -0.5377
     34 C20         4.3922   -2.0234   -4.5042 C.3       1 <0>         0.0995
     35 C21         0.0685   -2.1587   -6.7362 C.3       1 <0>         0.0789
     36 H2          0.4817   -1.6123    1.0022 H         1 <0>         0.0579
     37 H3          1.7353   -0.3799    1.2814 H         1 <0>         0.0589
     38 H4          0.1529   -0.2375    2.0839 H         1 <0>         0.0655
     39 H5         -0.9310    0.0640   -0.1365 H         1 <0>         0.1087
     40 H6          1.4275    1.9486    0.3100 H         1 <0>         0.0471
     41 H7         -0.0708    2.3256   -0.5739 H         1 <0>         0.0555
     42 H8         -0.1229    2.0305    1.1806 H         1 <0>         0.0631
     43 H9          2.3348   -1.1611   -0.1873 H         1 <0>         0.1664
     44 H10        -2.4499    2.8948   -2.2369 H         1 <0>         0.0983
     45 H11        -3.3319    1.3832   -2.5615 H         1 <0>         0.1000
     46 H12        -5.0456    3.1028   -1.4445 H         1 <0>         0.4194
     47 H13        -4.6045    1.3460    1.6117 H         1 <0>         0.1739
     48 H14        -7.2505    3.8162    3.8656 H         1 <0>         0.1494
     49 H15        -7.4911    5.3290    1.9395 H         1 <0>         0.1530
     50 H16         4.5300   -3.0322   -4.1151 H         1 <0>         0.0777
     51 H17         4.7949   -1.9658   -5.5154 H         1 <0>         0.0941
     52 H18         4.9146   -1.3125   -3.8639 H         1 <0>         0.0895
     53 H19         0.1018   -1.4895   -7.5958 H         1 <0>         0.0790
     54 H20         0.4387   -3.1420   -7.0266 H         1 <0>         0.0938
     55 H21        -0.9593   -2.2469   -6.3840 H         1 <0>         0.0946
@<TRIPOS>BOND
     1    1    2 1
     2    1   36 1
     3    1   37 1
     4    1   38 1
     5    2    3 1
     6    2    4 1
     7    2   39 1
     8    3   40 1
     9    3   41 1
    10    3   42 1
    11    4   10 1
    12    4    5 2
    13    5    6 1
    14    5   43 1
    15    6    7 2
    16    7   33 1
    17    7    8 1
    18    8    9 1
    19    8   10 1
    20    8   28 1
    21   10   11 2
    22   11   12 1
    23   12   13 1
    24   13   14 1
    25   13   44 1
    26   13   45 1
    27   14   15 2
    28   14   16 am
    29   16   17 1
    30   16   46 1
    31   17   22 ar
    32   17   18 ar
    33   18   19 ar
    34   18   47 1
    35   19   20 ar
    36   19   24 1
    37   20   21 ar
    38   20   48 1
    39   21   22 ar
    40   21   49 1
    41   22   23 1
    42   24   25 1
    43   24   26 1
    44   24   27 1
    45   28   29 2
    46   28   30 am
    47   30   31 am
    48   30   35 1
    49   31   32 2
    50   31   33 am
    51   33   34 1
    52   34   50 1
    53   34   51 1
    54   34   52 1
    55   35   53 1
    56   35   54 1
    57   35   55 1
@<TRIPOS>MOLECULE
ZINC41077773
   53    56     0     0     0
SMALL
USER_CHARGES

@<TRIPOS>ATOM
      1 C1         -1.7055   -0.6924   -1.7540 C.3       1 <0>        -0.6334
      2 S1         -0.7632   -2.0996   -1.1039 S.o2      1 <0>         2.5200
      3 O1         -0.1103   -1.7350    0.1045 O.2       1 <0>        -0.8909
      4 O2         -1.5420   -3.2859   -1.1771 O.2       1 <0>        -0.8926
      5 C2          0.5409   -2.3456   -2.2630 C.2       1 <0>        -0.4499
      6 N1          1.7630   -1.8974   -2.2256 N.2       1 <0>        -0.1177
      7 N2          2.6646   -2.1943   -3.2251 N.pl3     1 <0>        -0.4301
      8 C3          4.0301   -1.8366   -3.2378 C.2       1 <0>         0.4604
      9 N3          4.7087   -1.5566   -2.1572 N.2       1 <0>        -0.6320
     10 C4          4.6210   -1.8095   -4.6058 C.2       1 <0>        -0.2402
     11 C5          5.6134   -0.9194   -4.9498 C.2       1 <0>         0.1081
     12 C6          6.0343   -0.7959   -6.3472 C.ar      1 <0>        -0.1476
     13 C7          5.0897   -0.8984   -7.3786 C.ar      1 <0>        -0.0134
     14 C8          5.4883   -0.7823   -8.6800 C.ar      1 <0>        -0.1532
     15 C9          6.8282   -0.5629   -8.9832 C.ar      1 <0>         0.1645
     16 C10         7.7699   -0.4603   -7.9644 C.ar      1 <0>        -0.2200
     17 C11         7.3826   -0.5689   -6.6589 C.ar      1 <0>        -0.0306
     18 O3          7.2181   -0.4490  -10.2777 O.3       1 <0>        -0.3056
     19 C12         8.6085   -0.2243  -10.5191 C.3       1 <0>         0.0617
     20 C13         8.8549   -0.1237  -12.0258 C.3       1 <0>        -0.1212
     21 C14        10.3436    0.1168  -12.2842 C.3       1 <0>         0.0626
     22 O4         10.5737    0.2108  -13.6914 O.3       1 <0>        -0.3079
     23 C15        11.8540    0.4252  -14.0944 C.ar      1 <0>         0.1357
     24 C16        12.8684    0.5369  -13.1547 C.ar      1 <0>        -0.1981
     25 C17        14.1690    0.7548  -13.5662 C.ar      1 <0>        -0.0687
     26 C18        14.4601    0.8621  -14.9146 C.ar      1 <0>        -0.0730
     27 C19        13.4497    0.7513  -15.8534 C.ar      1 <0>        -0.0689
     28 C20        12.1489    0.5268  -15.4461 C.ar      1 <0>        -0.1384
     29 Cl1        16.0952    1.1365  -15.4293 Cl        1 <0>        -0.0681
     30 C21         4.0826   -2.7939   -5.5773 C.2       1 <0>         0.5446
     31 O5          4.7528   -3.1726   -6.5243 O.2       1 <0>        -0.4210
     32 N4          2.8326   -3.2576   -5.3831 N.2       1 <0>        -0.5260
     33 C22         2.1903   -2.9299   -4.2899 C.2       1 <0>         0.3787
     34 S2          0.5264   -3.2806   -3.7865 S.3       1 <0>         0.2088
     35 H1         -1.0557    0.1801   -1.8210 H         1 <0>         0.1416
     36 H2         -2.0877   -0.9378   -2.7448 H         1 <0>         0.1430
     37 H3         -2.5393   -0.4741   -1.0867 H         1 <0>         0.1523
     38 H4          4.2751   -1.5889   -1.2902 H         1 <0>         0.3655
     39 H5          6.0816   -0.3122   -4.1891 H         1 <0>         0.1549
     40 H6          4.0493   -1.0691   -7.1445 H         1 <0>         0.1228
     41 H7          4.7618   -0.8614   -9.4753 H         1 <0>         0.1377
     42 H8          8.8087   -0.2903   -8.2060 H         1 <0>         0.1348
     43 H9          8.1139   -0.4846   -5.8687 H         1 <0>         0.1349
     44 H10         8.9154    0.7044  -10.0380 H         1 <0>         0.0701
     45 H11         9.1867   -1.0533  -10.1109 H         1 <0>         0.0705
     46 H12         8.5480   -1.0524  -12.5069 H         1 <0>         0.0896
     47 H13         8.2767    0.7053  -12.4339 H         1 <0>         0.0892
     48 H14        10.6505    1.0455  -11.8030 H         1 <0>         0.0690
     49 H15        10.9218   -0.7121  -11.8760 H         1 <0>         0.0692
     50 H16        12.6414    0.4540  -12.1021 H         1 <0>         0.1369
     51 H17        14.9589    0.8419  -12.8349 H         1 <0>         0.1371
     52 H18        13.6788    0.8357  -16.9054 H         1 <0>         0.1420
     53 H19        11.3612    0.4356  -16.1793 H         1 <0>         0.1421
@<TRIPOS>BOND
     1    1    2 1
     2    1   35 1
     3    1   36 1
     4    1   37 1
     5    2    3 2
     6    2    4 2
     7    2    5 1
     8    5   34 1
     9    5    6 2
    10    6    7 1
    11    7   33 1
    12    7    8 1
    13    8    9 2
    14    8   10 1
    15    9   38 1
    16   10   11 2
    17   10   30 1
    18   11   12 1
    19   11   39 1
    20   12   17 ar
    21   12   13 ar
    22   13   14 ar
    23   13   40 1
    24   14   15 ar
    25   14   41 1
    26   15   16 ar
    27   15   18 1
    28   16   17 ar
    29   16   42 1
    30   17   43 1
    31   18   19 1
    32   19   20 1
    33   19   44 1
    34   19   45 1
    35   20   21 1
    36   20   46 1
    37   20   47 1
    38   21   22 1
    39   21   48 1
    40   21   49 1
    41   22   23 1
    42   23   28 ar
    43   23   24 ar
    44   24   25 ar
    45   24   50 1
    46   25   26 ar
    47   25   51 1
    48   26   27 ar
    49   26   29 1
    50   27   28 ar
    51   27   52 1
    52   28   53 1
    53   30   31 2
    54   30   32 1
    55   32   33 2
    56   33   34 1
@<TRIPOS>MOLECULE
ZINC09646536
   50    54     0     0     0
SMALL
USER_CHARGES
8-[2-[[5-(2-methyl-3-furyl)-4-phenyl-1,2,4-triazol-3-yl]sulfanyl]acetyl]-2-oxa-5-azabicyclo[4.4.0]deca-7,9,11-trien-4-one
@<TRIPOS>ATOM
      1 C1          0.5803   -5.0238   -0.0417 C.3       1 <0>        -0.0834
      2 C2         -0.8764   -4.6382   -0.0199 C.2       1 <0>         0.0694
      3 C3         -1.3631   -3.3678   -0.0036 C.2       1 <0>        -0.1417
      4 C4         -2.8254   -3.5020    0.0080 C.2       1 <0>        -0.1990
      5 C5         -3.0766   -4.8215    0.0028 C.2       1 <0>        -0.0265
      6 O1         -1.9129   -5.4889   -0.0108 O.3       1 <0>        -0.1722
      7 C6         -0.5817   -2.1123   -0.0040 C.2       1 <0>         0.2832
      8 N1          0.7267   -2.0072   -0.0154 N.2       1 <0>        -0.2741
      9 N2          1.0693   -0.7688   -0.0118 N.2       1 <0>        -0.2837
     10 C7          0.0021   -0.0041    0.0020 C.2       1 <0>         0.1506
     11 N3         -1.0891   -0.8319    0.0135 N.pl3     1 <0>        -0.4136
     12 C8         -2.4392   -0.4550    0.0351 C.ar      1 <0>         0.1029
     13 C9         -3.2310   -0.7675    1.1318 C.ar      1 <0>        -0.0965
     14 C10        -4.5597   -0.3906    1.1523 C.ar      1 <0>        -0.1083
     15 C11        -5.1040    0.2880    0.0774 C.ar      1 <0>        -0.0989
     16 C12        -4.3191    0.5960   -1.0186 C.ar      1 <0>        -0.1036
     17 C13        -2.9884    0.2264   -1.0425 C.ar      1 <0>        -0.0968
     18 S1         -0.0218    1.7577    0.0117 S.3       1 <0>         0.0718
     19 C14         1.7562    2.0963   -0.0035 C.3       1 <0>        -0.1612
     20 C15         1.9840    3.5860    0.0024 C.2       1 <0>         0.4203
     21 O2          1.0373    4.3442    0.0155 O.2       1 <0>        -0.4312
     22 C16         3.3522    4.1196   -0.0078 C.ar      1 <0>        -0.1586
     23 C17         4.4463    3.2459   -0.0171 C.ar      1 <0>        -0.0557
     24 C18         5.7294    3.7463   -0.0315 C.ar      1 <0>        -0.1172
     25 C19         5.9418    5.1178   -0.0267 C.ar      1 <0>         0.1167
     26 C20         4.8549    5.9964   -0.0117 C.ar      1 <0>         0.0811
     27 C21         3.5659    5.5040   -0.0024 C.ar      1 <0>        -0.0582
     28 N4          5.0917    7.3790   -0.0058 N.am      1 <0>        -0.6604
     29 C22         6.3214    7.8334   -0.3317 C.2       1 <0>         0.4907
     30 O3          6.5582    9.0227   -0.3046 O.2       1 <0>        -0.5024
     31 C23         7.3984    6.8560   -0.7286 C.3       1 <0>         0.0494
     32 O4          7.2038    5.6195   -0.0376 O.3       1 <0>        -0.2961
     33 H1          0.9446   -5.1249    0.9807 H         1 <0>         0.0902
     34 H2          0.6971   -5.9730   -0.5646 H         1 <0>         0.0810
     35 H3          1.1527   -4.2523   -0.5568 H         1 <0>         0.1075
     36 H4         -3.5512   -2.7024    0.0185 H         1 <0>         0.1565
     37 H5         -4.0579   -5.2726    0.0082 H         1 <0>         0.2103
     38 H6         -2.8076   -1.3014    1.9697 H         1 <0>         0.1312
     39 H7         -5.1752   -0.6298    2.0069 H         1 <0>         0.1376
     40 H8         -6.1441    0.5783    0.0941 H         1 <0>         0.1351
     41 H9         -4.7470    1.1257   -1.8568 H         1 <0>         0.1378
     42 H10        -2.3758    0.4675   -1.8987 H         1 <0>         0.1325
     43 H11         2.1796    1.6912    0.8068 H         1 <0>         0.1202
     44 H12         2.2007    1.6643   -0.9001 H         1 <0>         0.1368
     45 H13         4.2839    2.1782   -0.0170 H         1 <0>         0.1490
     46 H14         6.5716    3.0704   -0.0427 H         1 <0>         0.1520
     47 H15         2.7258    6.1827    0.0086 H         1 <0>         0.1479
     48 H16         4.3835    7.9991    0.2284 H         1 <0>         0.4198
     49 H17         8.3743    7.2666   -0.4697 H         1 <0>         0.1518
     50 H18         7.3521    6.6820   -1.8036 H         1 <0>         0.1061
@<TRIPOS>BOND
     1    1    2 1
     2    1   33 1
     3    1   34 1
     4    1   35 1
     5    2    6 1
     6    2    3 2
     7    3    4 1
     8    3    7 1
     9    4    5 2
    10    4   36 1
    11    5    6 1
    12    5   37 1
    13    7   11 1
    14    7    8 2
    15    8    9 1
    16    9   10 2
    17   10   11 1
    18   10   18 1
    19   11   12 1
    20   12   17 ar
    21   12   13 ar
    22   13   14 ar
    23   13   38 1
    24   14   15 ar
    25   14   39 1
    26   15   16 ar
    27   15   40 1
    28   16   17 ar
    29   16   41 1
    30   17   42 1
    31   18   19 1
    32   19   20 1
    33   19   43 1
    34   19   44 1
    35   20   21 2
    36   20   22 1
    37   22   27 ar
    38   22   23 ar
    39   23   24 ar
    40   23   45 1
    41   24   25 ar
    42   24   46 1
    43   25   32 1
    44   25   26 ar
    45   26   27 ar
    46   26   28 1
    47   27   47 1
    48   28   29 am
    49   28   48 1
    50   29   30 2
    51   29   31 1
    52   31   32 1
    53   31   49 1
    54   31   50 1
@<TRIPOS>MOLECULE
ZINC13811217
   64    68     0     0     0
SMALL
USER_CHARGES
(3,5-dimethylpyrazol-1-yl)-dimethyl-N-(3-morpholinopropyl)BLAHamine
@<TRIPOS>ATOM
      1 C1          0.7733   -9.6552    0.9456 C.3       1 <0>        -0.0764
      2 C2          0.1685   -8.2809    0.8170 C.2       1 <0>         0.0915
      3 C3         -1.1751   -7.9536    1.0344 C.2       1 <0>        -0.2575
      4 C4         -1.3214   -6.6264    0.8193 C.2       1 <0>         0.1177
      5 N1         -0.1042   -6.1290    0.4757 N.pl3     1 <0>        -0.3182
      6 N2          0.8084   -7.1919    0.4771 N.2       1 <0>        -0.2594
      7 C5          0.1838   -4.7984    0.1702 C.ar      1 <0>         0.6291
      8 N3          1.4284   -4.4795   -0.1461 N.ar      1 <0>        -0.5886
      9 C6          1.8233   -3.2470   -0.4551 C.ar      1 <0>         0.5266
     10 C7          0.8115   -2.2433   -0.4313 C.ar      1 <0>        -0.2662
     11 C8          0.9684   -0.8312   -0.7252 C.2       1 <0>        -0.0589
     12 C9         -0.1432   -0.0623   -0.6363 C.2       1 <0>        -0.2148
     13 S1         -1.4416   -1.1724   -0.1625 S.3       1 <0>         0.1612
     14 C10        -0.4988   -2.6617   -0.0828 C.ar      1 <0>         0.1556
     15 N4         -0.8075   -3.9087    0.2108 N.ar      1 <0>        -0.5148
     16 C11        -0.2234    1.4104   -0.8910 C.3       1 <0>         0.1420
     17 O1          1.1158    1.9272   -0.9353 O.3       1 <0>        -0.3546
     18 C12         1.9920    1.1663   -1.7714 C.3       1 <0>         0.1170
     19 C13         2.2949   -0.1869   -1.1222 C.3       1 <0>        -0.0958
     20 C14         3.2985    1.9369   -1.9715 C.3       1 <0>        -0.1440
     21 C15         1.3237    0.9395   -3.1290 C.3       1 <0>        -0.1862
     22 N5          3.1361   -2.9575   -0.7803 N.pl3     1 <0>        -0.7041
     23 C16         4.1143   -4.0402   -0.9107 C.3       1 <0>         0.1234
     24 C17         5.4797   -3.4529   -1.2736 C.3       1 <0>        -0.1302
     25 C18         6.5014   -4.5836   -1.4098 C.3       1 <0>         0.0586
     26 N6          7.8123   -4.0197   -1.7582 N.3       1 <0>        -0.5359
     27 C19         7.7870   -3.4168   -3.0988 C.3       1 <0>         0.0122
     28 C20         9.1519   -2.7905   -3.3966 C.3       1 <0>         0.0611
     29 O2         10.1670   -3.7901   -3.2715 O.3       1 <0>        -0.3845
     30 C21        10.2203   -4.3979   -1.9780 C.3       1 <0>         0.0613
     31 C22         8.8663   -5.0405   -1.6659 C.3       1 <0>         0.0160
     32 C23        -2.6021   -5.8412    0.9394 C.3       1 <0>        -0.1250
     33 H1         -0.0055  -10.3719    1.2454 H         1 <0>         0.0830
     34 H2          1.5672   -9.6367    1.7068 H         1 <0>         0.0801
     35 H3          1.1996   -9.9601   -0.0215 H         1 <0>         0.0799
     36 H4         -1.9573   -8.6403    1.3225 H         1 <0>         0.1601
     37 H5         -0.7314    1.5895   -1.8501 H         1 <0>         0.0822
     38 H6         -0.7898    1.8924   -0.0805 H         1 <0>         0.1164
     39 H7          2.9169   -0.0461   -0.2259 H         1 <0>         0.0957
     40 H8          2.8208   -0.8395   -1.8347 H         1 <0>         0.0879
     41 H9          3.9737    1.3531   -2.6144 H         1 <0>         0.0746
     42 H10         3.7771    2.1068   -0.9957 H         1 <0>         0.0687
     43 H11         3.0840    2.9047   -2.4482 H         1 <0>         0.0717
     44 H12         1.9949    0.3544   -3.7749 H         1 <0>         0.0695
     45 H13         1.1145    1.9106   -3.6015 H         1 <0>         0.0717
     46 H14         0.3812    0.3904   -2.9866 H         1 <0>         0.0662
     47 H15         3.4457   -1.9143   -0.9410 H         1 <0>         0.4364
     48 H16         4.1902   -4.5826    0.0433 H         1 <0>         0.0765
     49 H17         3.7912   -4.7330   -1.7016 H         1 <0>         0.0710
     50 H18         5.4037   -2.9105   -2.2276 H         1 <0>         0.0703
     51 H19         5.8028   -2.7601   -0.4827 H         1 <0>         0.0814
     52 H20         6.5774   -5.1260   -0.4558 H         1 <0>         0.0830
     53 H21         6.1783   -5.2764   -2.2008 H         1 <0>         0.0410
     54 H22         7.5669   -4.1935   -3.8460 H         1 <0>         0.0442
     55 H23         7.0089   -2.6402   -3.1370 H         1 <0>         0.0881
     56 H24         9.1551   -2.3880   -4.4203 H         1 <0>         0.0997
     57 H25         9.3458   -1.9769   -2.6821 H         1 <0>         0.0610
     58 H26        11.0053   -5.1684   -1.9670 H         1 <0>         0.1010
     59 H27        10.4478   -3.6319   -1.2220 H         1 <0>         0.0614
     60 H28         8.8828   -5.4596   -0.6490 H         1 <0>         0.0891
     61 H29         8.6636   -5.8433   -2.3900 H         1 <0>         0.0450
     62 H30        -2.4078   -4.7845    0.7037 H         1 <0>         0.1185
     63 H31        -2.9874   -5.9230    1.9665 H         1 <0>         0.0833
     64 H32        -3.3459   -6.2430    0.2356 H         1 <0>         0.0832
@<TRIPOS>BOND
     1    1    2 1
     2    1   33 1
     3    1   34 1
     4    1   35 1
     5    2    6 2
     6    2    3 1
     7    3    4 2
     8    3   36 1
     9    4    5 1
    10    4   32 1
    11    5    6 1
    12    5    7 1
    13    7   15 ar
    14    7    8 ar
    15    8    9 ar
    16    9   10 ar
    17    9   22 1
    18   10   14 ar
    19   10   11 1
    20   11   19 1
    21   11   12 2
    22   12   13 1
    23   12   16 1
    24   13   14 1
    25   14   15 ar
    26   16   17 1
    27   16   37 1
    28   16   38 1
    29   17   18 1
    30   18   19 1
    31   18   20 1
    32   18   21 1
    33   19   39 1
    34   19   40 1
    35   20   41 1
    36   20   42 1
    37   20   43 1
    38   21   44 1
    39   21   45 1
    40   21   46 1
    41   22   23 1
    42   22   47 1
    43   23   24 1
    44   23   48 1
    45   23   49 1
    46   24   25 1
    47   24   50 1
    48   24   51 1
    49   25   26 1
    50   25   52 1
    51   25   53 1
    52   26   31 1
    53   26   27 1
    54   27   28 1
    55   27   54 1
    56   27   55 1
    57   28   29 1
    58   28   56 1
    59   28   57 1
    60   29   30 1
    61   30   31 1
    62   30   58 1
    63   30   59 1
    64   31   60 1
    65   31   61 1
    66   32   62 1
    67   32   63 1
    68   32   64 1
@<TRIPOS>MOLECULE
ZINC35636509
   68    71     0     0     0
SMALL
USER_CHARGES

@<TRIPOS>ATOM
      1 C1          1.2494    0.4833   -0.2420 C.3       1 <0>        -0.1512
      2 C2          1.1247   -1.0313   -0.0643 C.3       1 <0>         0.0510
      3 N1         -0.2860   -1.4236   -0.1821 N.3       1 <0>        -0.5391
      4 C3         -0.7881   -1.1814   -1.5412 C.3       1 <0>         0.0383
      5 C4         -2.2997   -1.4305   -1.5756 C.3       1 <0>         0.1156
      6 N2         -2.5636   -2.7770   -1.0459 N.am      1 <0>        -0.6145
      7 C5         -1.9765   -3.1413    0.2525 C.3       1 <0>         0.1107
      8 C6         -0.4776   -2.8249    0.2150 C.3       1 <0>         0.0400
      9 C7         -3.3235   -3.6536   -1.7319 C.2       1 <0>         0.5223
     10 O1         -3.8001   -3.3361   -2.8010 O.2       1 <0>        -0.5378
     11 C8         -3.5811   -5.0282   -1.1704 C.3       1 <0>        -0.1609
     12 C9         -4.4651   -5.8170   -2.1384 C.3       1 <0>         0.1594
     13 N3         -4.7155   -7.1533   -1.5926 N.am      1 <0>        -0.6220
     14 C10        -3.8955   -8.3537   -1.8140 C.3       1 <0>         0.1403
     15 C11        -4.5889   -9.4476   -1.0334 C.2       1 <0>         0.1724
     16 C12        -5.6675   -8.8781   -0.4582 C.2       1 <0>        -0.2801
     17 C13        -5.7353   -7.5096   -0.7908 C.2       1 <0>         0.5765
     18 O2         -6.6050   -6.7500   -0.4049 O.2       1 <0>        -0.5152
     19 C14        -6.5577   -9.7581    0.3958 C.3       1 <0>         0.2534
     20 H1         -7.5639   -9.7242   -0.0218 H         1 <0>         0.0929
     21 N4         -6.1681  -11.1722    0.5276 N.am      1 <0>        -0.7095
     22 C15        -5.0585  -11.5947   -0.1100 C.2       1 <0>         0.7120
     23 O3         -4.7290  -12.7603   -0.0076 O.2       1 <0>        -0.5576
     24 N5         -4.3072  -10.7718   -0.8533 N.am      1 <0>        -0.5236
     25 C16        -3.1186  -11.3223   -1.5094 C.3       1 <0>         0.0995
     26 C17        -1.9130  -11.1877   -0.5770 C.3       1 <0>        -0.1697
     27 C18        -6.6124   -9.1611    1.7784 C.ar      1 <0>        -0.1071
     28 C19        -5.6556   -8.2449    2.1741 C.ar      1 <0>        -0.0773
     29 C20        -5.7058   -7.6974    3.4422 C.ar      1 <0>        -0.1264
     30 C21        -6.7131   -8.0655    4.3148 C.ar      1 <0>        -0.0745
     31 C22        -7.6701   -8.9807    3.9188 C.ar      1 <0>        -0.1211
     32 C23        -7.6224   -9.5252    2.6489 C.ar      1 <0>        -0.0680
     33 C24        -8.6689  -10.5191    2.2153 C.3       1 <0>        -0.1239
     34 C25        -6.7673   -7.4693    5.6977 C.3       1 <0>        -0.1165
     35 H2          2.2961    0.7744   -0.1546 H         1 <0>         0.0610
     36 H3          0.8746    0.7657   -1.2258 H         1 <0>         0.0553
     37 H4          0.6662    0.9886    0.5279 H         1 <0>         0.0648
     38 H5          1.7078   -1.5366   -0.8341 H         1 <0>         0.0336
     39 H6          1.4995   -1.3138    0.9195 H         1 <0>         0.0767
     40 H7         -0.5829   -0.1496   -1.8263 H         1 <0>         0.0925
     41 H8         -0.2922   -1.8572   -2.2379 H         1 <0>         0.0385
     42 H9         -2.8072   -0.6886   -0.9591 H         1 <0>         0.0770
     43 H10        -2.6584   -1.3644   -2.6028 H         1 <0>         0.0976
     44 H11        -2.4530   -2.5638    1.0447 H         1 <0>         0.0812
     45 H12        -2.1215   -4.2063    0.4340 H         1 <0>         0.0890
     46 H13         0.0140   -3.4778   -0.5062 H         1 <0>         0.0389
     47 H14        -0.0473   -2.9849    1.2036 H         1 <0>         0.0896
     48 H15        -2.6333   -5.5495   -1.0368 H         1 <0>         0.0957
     49 H16        -4.0855   -4.9390   -0.2082 H         1 <0>         0.1019
     50 H17        -5.4130   -5.2956   -2.2720 H         1 <0>         0.1002
     51 H18        -3.9608   -5.9062   -3.1006 H         1 <0>         0.0932
     52 H19        -3.8680   -8.6038   -2.8745 H         1 <0>         0.1134
     53 H20        -2.8858   -8.1984   -1.4339 H         1 <0>         0.1098
     54 H21        -6.6977  -11.7852    1.0611 H         1 <0>         0.4319
     55 H22        -3.2849  -12.3749   -1.7386 H         1 <0>         0.1044
     56 H23        -2.9269  -10.7753   -2.4324 H         1 <0>         0.0902
     57 H24        -1.0287  -11.5973   -1.0651 H         1 <0>         0.0784
     58 H25        -1.7468  -10.1351   -0.3477 H         1 <0>         0.0571
     59 H26        -2.1047  -11.7347    0.3461 H         1 <0>         0.0656
     60 H27        -4.8687   -7.9574    1.4926 H         1 <0>         0.1135
     61 H28        -4.9580   -6.9823    3.7516 H         1 <0>         0.1197
     62 H29        -8.4568   -9.2685    4.6005 H         1 <0>         0.1230
     63 H30        -8.2982  -11.5312    2.3776 H         1 <0>         0.0702
     64 H31        -9.5777  -10.3672    2.7977 H         1 <0>         0.0724
     65 H32        -8.8879  -10.3777    1.1569 H         1 <0>         0.0703
     66 H33        -7.3666   -6.5591    5.6777 H         1 <0>         0.0721
     67 H34        -7.2175   -8.1857    6.3849 H         1 <0>         0.0666
     68 H35        -5.7569   -7.2319    6.0309 H         1 <0>         0.0661
@<TRIPOS>BOND
     1    1    2 1
     2    1   35 1
     3    1   36 1
     4    1   37 1
     5    2    3 1
     6    2   38 1
     7    2   39 1
     8    3    8 1
     9    3    4 1
    10    4    5 1
    11    4   40 1
    12    4   41 1
    13    5    6 1
    14    5   42 1
    15    5   43 1
    16    6    7 1
    17    6    9 am
    18    7    8 1
    19    7   44 1
    20    7   45 1
    21    8   46 1
    22    8   47 1
    23    9   10 2
    24    9   11 1
    25   11   12 1
    26   11   48 1
    27   11   49 1
    28   12   13 1
    29   12   50 1
    30   12   51 1
    31   13   17 am
    32   13   14 1
    33   14   15 1
    34   14   52 1
    35   14   53 1
    36   15   24 1
    37   15   16 2
    38   16   17 1
    39   16   19 1
    40   17   18 2
    41   19   20 1
    42   19   21 1
    43   19   27 1
    44   21   22 am
    45   21   54 1
    46   22   23 2
    47   22   24 am
    48   24   25 1
    49   25   26 1
    50   25   55 1
    51   25   56 1
    52   26   57 1
    53   26   58 1
    54   26   59 1
    55   27   32 ar
    56   27   28 ar
    57   28   29 ar
    58   28   60 1
    59   29   30 ar
    60   29   61 1
    61   30   31 ar
    62   30   34 1
    63   31   32 ar
    64   31   62 1
    65   32   33 1
    66   33   63 1
    67   33   64 1
    68   33   65 1
    69   34   66 1
    70   34   67 1
    71   34   68 1
@<TRIPOS>MOLECULE
ZINC46623523
   62    66     0     0     0
SMALL
USER_CHARGES

@<TRIPOS>ATOM
      1 C1         -1.6405    1.3204   -0.3947 C.3       1 <0>        -0.0815
      2 C2         -1.3407   -0.1552   -0.3337 C.2       1 <0>         0.1568
      3 C3         -0.7023   -0.9525   -1.3786 C.ar      1 <0>        -0.2076
      4 C4         -0.2004   -0.6576   -2.6645 C.ar      1 <0>         0.0058
      5 C5          0.3552   -1.6971   -3.4013 C.ar      1 <0>        -0.1617
      6 C6          0.3945   -2.9817   -2.8445 C.ar      1 <0>         0.2889
      7 N1         -0.0867   -3.2230   -1.6323 N.ar      1 <0>        -0.4581
      8 C7         -0.6255   -2.2688   -0.8909 C.ar      1 <0>         0.3102
      9 O1         -1.1716   -2.2616    0.3424 O.3       1 <0>        -0.0758
     10 N2         -1.5970   -0.9519    0.6596 N.2       1 <0>        -0.2682
     11 C8          0.9825   -4.0886   -3.6220 C.2       1 <0>        -0.0095
     12 C9          1.0848   -5.3842   -3.2164 C.2       1 <0>        -0.1220
     13 C10         1.7051   -6.0893   -4.2648 C.2       1 <0>        -0.2210
     14 C11         1.9491   -5.2003   -5.2493 C.2       1 <0>        -0.0033
     15 O2          1.5067   -3.9947   -4.8598 O.3       1 <0>        -0.1654
     16 C12        -0.2642    0.7161   -3.2117 C.2       1 <0>         0.5572
     17 O3         -0.1148    1.6711   -2.4752 O.2       1 <0>        -0.5077
     18 N3         -0.4881    0.9079   -4.5269 N.am      1 <0>        -0.7126
     19 C13        -0.5513    2.2676   -5.0685 C.3       1 <0>         0.1616
     20 C14        -0.8101    2.2059   -6.5518 C.ar      1 <0>        -0.1140
     21 C15         0.2503    2.1452   -7.4365 C.ar      1 <0>        -0.0974
     22 C16         0.0129    2.0887   -8.7972 C.ar      1 <0>        -0.1156
     23 C17        -1.2849    2.0923   -9.2731 C.ar      1 <0>        -0.0654
     24 C18        -2.3454    2.1521   -8.3883 C.ar      1 <0>        -0.0981
     25 C19        -2.1080    2.2043   -7.0275 C.ar      1 <0>        -0.0973
     26 C20        -1.5437    2.0317  -10.7564 C.3       1 <0>         0.0899
     27 N4         -1.6541    0.6286  -11.1773 N.3       1 <0>        -0.5277
     28 C21        -0.3697   -0.0700  -11.0241 C.3       1 <0>         0.0207
     29 C22        -0.5443   -1.5397  -11.4161 C.3       1 <0>         0.0868
     30 H1         -1.2499   -2.0165  -10.7358 H         1 <0>         0.0694
     31 O4         -1.0454   -1.6148  -12.7535 O.3       1 <0>        -0.3767
     32 C23        -2.2956   -0.9453  -12.9383 C.3       1 <0>         0.0905
     33 H2         -2.6000   -1.0242  -13.9820 H         1 <0>         0.1060
     34 C24        -2.1387    0.5303  -12.5618 C.3       1 <0>         0.0228
     35 C25        -3.3577   -1.5910  -12.0462 C.3       1 <0>        -0.1759
     36 C26         0.8062   -2.2541  -11.3348 C.3       1 <0>        -0.1458
     37 H3         -0.7537    1.8837   -0.1041 H         1 <0>         0.1053
     38 H4         -1.9261    1.5914   -1.4111 H         1 <0>         0.0954
     39 H5         -2.4584    1.5535    0.2870 H         1 <0>         0.0840
     40 H6          0.7510   -1.5168   -4.3899 H         1 <0>         0.1600
     41 H7          0.7544   -5.7920   -2.2725 H         1 <0>         0.1627
     42 H8          1.9416   -7.1430   -4.2782 H         1 <0>         0.1587
     43 H9          2.4188   -5.4228   -6.1961 H         1 <0>         0.2140
     44 H10        -0.6074    0.1456   -5.1148 H         1 <0>         0.4060
     45 H11        -1.3579    2.8156   -4.5814 H         1 <0>         0.0830
     46 H12         0.3954    2.7759   -4.8857 H         1 <0>         0.0834
     47 H13         1.2643    2.1424   -7.0647 H         1 <0>         0.1251
     48 H14         0.8414    2.0420   -9.4884 H         1 <0>         0.1216
     49 H15        -3.3593    2.1553   -8.7602 H         1 <0>         0.1258
     50 H16        -2.9366    2.2473   -6.3361 H         1 <0>         0.1252
     51 H17        -2.4729    2.5537  -10.9848 H         1 <0>         0.0871
     52 H18        -0.7197    2.5069  -11.2887 H         1 <0>         0.0465
     53 H19         0.3758    0.3930  -11.6706 H         1 <0>         0.0423
     54 H20        -0.0423   -0.0066   -9.9864 H         1 <0>         0.0889
     55 H21        -3.1027    1.0321  -12.6464 H         1 <0>         0.0876
     56 H22        -1.4215    1.0030  -13.2328 H         1 <0>         0.0440
     57 H23        -3.0536   -1.5104  -11.0026 H         1 <0>         0.0707
     58 H24        -4.3103   -1.0803  -12.1875 H         1 <0>         0.0645
     59 H25        -3.4660   -2.6423  -12.3130 H         1 <0>         0.0587
     60 H26         1.1887   -2.1931  -10.3159 H         1 <0>         0.0719
     61 H27         0.6812   -3.3003  -11.6140 H         1 <0>         0.0672
     62 H28         1.5109   -1.7778  -12.0165 H         1 <0>         0.0623
@<TRIPOS>BOND
     1    1    2 1
     2    1   37 1
     3    1   38 1
     4    1   39 1
     5    2   10 2
     6    2    3 1
     7    3    8 ar
     8    3    4 ar
     9    4    5 ar
    10    4   16 1
    11    5    6 ar
    12    5   40 1
    13    6    7 ar
    14    6   11 1
    15    7    8 ar
    16    8    9 1
    17    9   10 1
    18   11   15 1
    19   11   12 2
    20   12   13 1
    21   12   41 1
    22   13   14 2
    23   13   42 1
    24   14   15 1
    25   14   43 1
    26   16   17 2
    27   16   18 am
    28   18   19 1
    29   18   44 1
    30   19   20 1
    31   19   45 1
    32   19   46 1
    33   20   25 ar
    34   20   21 ar
    35   21   22 ar
    36   21   47 1
    37   22   23 ar
    38   22   48 1
    39   23   24 ar
    40   23   26 1
    41   24   25 ar
    42   24   49 1
    43   25   50 1
    44   26   27 1
    45   26   51 1
    46   26   52 1
    47   27   34 1
    48   27   28 1
    49   28   29 1
    50   28   53 1
    51   28   54 1
    52   29   30 1
    53   29   31 1
    54   29   36 1
    55   31   32 1
    56   32   33 1
    57   32   34 1
    58   32   35 1
    59   34   55 1
    60   34   56 1
    61   35   57 1
    62   35   58 1
    63   35   59 1
    64   36   60 1
    65   36   61 1
    66   36   62 1
@<TRIPOS>MOLECULE
ZINC59251215
   51    53     0     0     0
SMALL
USER_CHARGES

@<TRIPOS>ATOM
      1 C1          0.7085    0.6165    0.7012 C.3       1 <0>        -0.0890
      2 C2          0.5566   -0.8821    0.6523 C.2       1 <0>         0.0797
      3 C3         -0.6039   -1.5546    0.5560 C.2       1 <0>        -0.2872
      4 C4         -0.3099   -2.9365    0.5399 C.2       1 <0>         0.3322
      5 N1          0.9887   -3.0720    0.6245 N.2       1 <0>        -0.3531
      6 O1          1.5567   -1.7764    0.6915 O.3       1 <0>        -0.0701
      7 N2         -1.2394   -3.9728    0.4497 N.am      1 <0>        -0.6343
      8 C5         -2.5552   -3.6925    0.3677 C.2       1 <0>         0.5083
      9 O2         -2.9310   -2.5395    0.3723 O.2       1 <0>        -0.4942
     10 C6         -3.5594   -4.8120    0.2703 C.3       1 <0>         0.1034
     11 N3         -4.9104   -4.2508    0.1932 N.am      1 <0>        -0.6061
     12 C7         -5.5000   -3.9372   -1.1107 C.3       1 <0>         0.0777
     13 C8         -5.6109   -4.0230    1.3219 C.2       1 <0>         0.5200
     14 O3         -5.1228   -4.2826    2.4013 O.2       1 <0>        -0.5191
     15 C9         -7.0007   -3.4457    1.2426 C.3       1 <0>        -0.0547
     16 C10        -7.5602   -3.2902    2.6332 C.2       1 <0>        -0.2122
     17 C11        -8.2913   -4.2522    3.3385 C.2       1 <0>         0.1005
     18 N4         -8.6035   -3.7535    4.5077 N.2       1 <0>        -0.2710
     19 N5         -8.0805   -2.4562    4.5843 N.pl3     1 <0>        -0.3311
     20 C12        -7.4391   -2.1976    3.4225 C.2       1 <0>         0.1110
     21 C13        -6.7217   -0.9205    3.0685 C.3       1 <0>        -0.0983
     22 C14        -8.1970   -1.5825    5.6751 C.ar      1 <0>         0.1679
     23 C15        -8.6020   -0.2699    5.4743 C.ar      1 <0>        -0.0991
     24 C16        -8.7160    0.5889    6.5499 C.ar      1 <0>        -0.0881
     25 C17        -8.4265    0.1425    7.8277 C.ar      1 <0>        -0.0243
     26 C18        -8.0222   -1.1649    8.0313 C.ar      1 <0>        -0.0895
     27 C19        -7.9128   -2.0305    6.9590 C.ar      1 <0>        -0.0197
     28 Cl1        -7.4130   -3.6730    7.2155 Cl        1 <0>        -0.0239
     29 Cl2        -8.5704    1.2251    9.1771 Cl        1 <0>        -0.0457
     30 C20        -8.6568   -5.6259    2.8380 C.3       1 <0>        -0.0748
     31 H1          1.7655    0.8724    0.7747 H         1 <0>         0.0865
     32 H2          0.2909    1.0538   -0.2057 H         1 <0>         0.0973
     33 H3          0.1788    1.0072    1.5701 H         1 <0>         0.0971
     34 H4         -1.5889   -1.1150    0.5009 H         1 <0>         0.1805
     35 H5         -0.9388   -4.8950    0.4461 H         1 <0>         0.4232
     36 H6         -3.3596   -5.4025   -0.6239 H         1 <0>         0.1193
     37 H7         -3.4802   -5.4488    1.1514 H         1 <0>         0.1237
     38 H8         -6.0375   -4.8083   -1.4854 H         1 <0>         0.0646
     39 H9         -6.1915   -3.1013   -1.0052 H         1 <0>         0.0786
     40 H10        -4.7097   -3.6686   -1.8117 H         1 <0>         0.0729
     41 H11        -6.9621   -2.4714    0.7554 H         1 <0>         0.1022
     42 H12        -7.6398   -4.1149    0.6665 H         1 <0>         0.1052
     43 H13        -7.4329   -0.2079    2.6508 H         1 <0>         0.0837
     44 H14        -6.2681   -0.4980    3.9651 H         1 <0>         0.0745
     45 H15        -5.9450   -1.1318    2.3335 H         1 <0>         0.0878
     46 H16        -8.8274    0.0796    4.4776 H         1 <0>         0.1489
     47 H17        -9.0310    1.6100    6.3938 H         1 <0>         0.1518
     48 H18        -7.7965   -1.5108    9.0292 H         1 <0>         0.1538
     49 H19        -7.8725   -6.3322    3.1100 H         1 <0>         0.0798
     50 H20        -9.5990   -5.9379    3.2885 H         1 <0>         0.0762
     51 H21        -8.7633   -5.6010    1.7535 H         1 <0>         0.0772
@<TRIPOS>BOND
     1    1    2 1
     2    1   31 1
     3    1   32 1
     4    1   33 1
     5    2    6 1
     6    2    3 2
     7    3    4 1
     8    3   34 1
     9    4    5 2
    10    4    7 1
    11    5    6 1
    12    7    8 am
    13    7   35 1
    14    8    9 2
    15    8   10 1
    16   10   11 1
    17   10   36 1
    18   10   37 1
    19   11   12 1
    20   11   13 am
    21   12   38 1
    22   12   39 1
    23   12   40 1
    24   13   14 2
    25   13   15 1
    26   15   16 1
    27   15   41 1
    28   15   42 1
    29   16   20 2
    30   16   17 1
    31   17   18 2
    32   17   30 1
    33   18   19 1
    34   19   20 1
    35   19   22 1
    36   20   21 1
    37   21   43 1
    38   21   44 1
    39   21   45 1
    40   22   27 ar
    41   22   23 ar
    42   23   24 ar
    43   23   46 1
    44   24   25 ar
    45   24   47 1
    46   25   26 ar
    47   25   29 1
    48   26   27 ar
    49   26   48 1
    50   27   28 1
    51   30   49 1
    52   30   50 1
    53   30   51 1
@<TRIPOS>MOLECULE
ZINC09411179
   57    59     0     0     0
SMALL
USER_CHARGES
4-[4-[(5-chloro-2-methoxy-phenyl)methyl]piperazin-1-yl]-N-(5-ethyl-3H-1,3,4-thiadiazol-2-ylidene)-4-oxo-butanamide
@<TRIPOS>ATOM
      1 C1          3.8074    0.2024   -7.8444 C.3       1 <0>        -0.1524
      2 C2          2.6473   -0.7504   -7.5491 C.3       1 <0>        -0.0315
      3 C3          1.6317   -0.0517   -6.6823 C.2       1 <0>         0.0855
      4 N1          0.5994    0.6569   -7.0400 N.2       1 <0>        -0.2379
      5 N2         -0.2058    1.2113   -6.0699 N.pl3     1 <0>        -0.4909
      6 H1         -0.9800    1.7432   -6.3121 H         1 <0>         0.4480
      7 C4          0.1088    0.9967   -4.7688 C.2       1 <0>         0.4058
      8 N3         -0.5163    1.4274   -3.6700 N.2       1 <0>        -0.5997
      9 C5         -0.0473    1.1067   -2.4714 C.2       1 <0>         0.4926
     10 O1          0.9522    0.4202   -2.3730 O.2       1 <0>        -0.5406
     11 C6         -0.7527    1.5927   -1.2315 C.3       1 <0>        -0.0993
     12 C7         -0.0127    1.0858    0.0080 C.3       1 <0>        -0.1294
     13 C8         -0.7181    1.5718    1.2479 C.2       1 <0>         0.5251
     14 O2         -1.7145    2.2562    1.1498 O.2       1 <0>        -0.5078
     15 N4         -0.2416    1.2460    2.4658 N.am      1 <0>        -0.6344
     16 C9          0.9617    0.4121    2.6073 C.3       1 <0>         0.0834
     17 C10         1.9339    1.1265    3.5595 C.3       1 <0>        -0.0201
     18 C11         0.1281    2.3681    4.5982 C.3       1 <0>        -0.0124
     19 C12        -0.9146    1.7097    3.6886 C.3       1 <0>         0.0867
     20 C13         2.1782    1.9592    5.8199 C.3       1 <0>         0.0602
     21 C14         3.4202    1.1059    5.8414 C.ar      1 <0>        -0.1825
     22 C15         3.5808    0.1435    6.8196 C.ar      1 <0>        -0.0453
     23 C16         4.7208   -0.6400    6.8398 C.ar      1 <0>        -0.0707
     24 C17         5.7023   -0.4616    5.8806 C.ar      1 <0>        -0.0354
     25 C18         5.5456    0.4998    4.9014 C.ar      1 <0>        -0.1886
     26 C19         4.4002    1.2824    4.8758 C.ar      1 <0>         0.1518
     27 O3          4.2414    2.2248    3.9094 O.3       1 <0>        -0.3219
     28 C20         5.2908    2.3512    2.9478 C.3       1 <0>         0.0165
     29 Cl1         4.9201   -1.8490    8.0696 Cl        1 <0>        -0.0395
     30 S1          1.5389    0.0235   -4.9022 S.3       1 <0>         0.0944
     31 H2          3.4308    1.0834   -8.3641 H         1 <0>         0.0650
     32 H3          4.2760    0.5055   -6.9081 H         1 <0>         0.0630
     33 H4          4.5420   -0.3029   -8.4714 H         1 <0>         0.0813
     34 H5          3.0239   -1.6314   -7.0294 H         1 <0>         0.1067
     35 H6          2.1787   -1.0534   -8.4854 H         1 <0>         0.1089
     36 H7         -1.7753    1.2154   -1.2238 H         1 <0>         0.1087
     37 H8         -0.7675    2.6825   -1.2255 H         1 <0>         0.1077
     38 H9          0.0021   -0.0041    0.0020 H         1 <0>         0.1072
     39 H10         1.0099    1.4631    0.0003 H         1 <0>         0.1046
     40 H11         0.6879   -0.5590    3.0196 H         1 <0>         0.0969
     41 H12         1.4322    0.2799    1.6330 H         1 <0>         0.1312
     42 H13         2.2832    2.0514    3.1006 H         1 <0>         0.1458
     43 H14         2.7852    0.4768    3.7628 H         1 <0>         0.1361
     44 H15         0.5026    3.2757    4.1248 H         1 <0>         0.1359
     45 H16        -0.3302    2.6189    5.5549 H         1 <0>         0.1429
     46 H17        -1.6852    2.4358    3.4295 H         1 <0>         0.1367
     47 H18        -1.3683    0.8614    4.2010 H         1 <0>         0.0951
     48 H19         2.4462    2.9846    5.5652 H         1 <0>         0.1420
     49 H20         1.7073    1.9402    6.8027 H         1 <0>         0.1386
     50 H21         2.8158    0.0026    7.5688 H         1 <0>         0.1509
     51 H22         6.5916   -1.0742    5.8980 H         1 <0>         0.1502
     52 H23         6.3118    0.6388    4.1530 H         1 <0>         0.1515
     53 H24         6.2205    2.6068    3.4561 H         1 <0>         0.0692
     54 H25         5.4140    1.4065    2.4182 H         1 <0>         0.0680
     55 H26         5.0383    3.1368    2.2355 H         1 <0>         0.1133
     56 N5          1.2300    1.4089    4.8293 N.4       1 <0>        -0.3919
     57 H27         0.8377    0.5330    5.1942 H         1 <0>         0.4250
@<TRIPOS>BOND
     1    1    2 1
     2    1   31 1
     3    1   32 1
     4    1   33 1
     5    2    3 1
     6    2   34 1
     7    2   35 1
     8    3   30 1
     9    3    4 2
    10    4    5 1
    11    5    6 1
    12    5    7 1
    13    7    8 2
    14    7   30 1
    15    8    9 1
    16    9   10 2
    17    9   11 1
    18   11   12 1
    19   11   36 1
    20   11   37 1
    21   12   13 1
    22   12   38 1
    23   12   39 1
    24   13   14 2
    25   13   15 am
    26   15   19 1
    27   15   16 1
    28   16   17 1
    29   16   40 1
    30   16   41 1
    31   17   42 1
    32   17   43 1
    33   17   56 1
    34   18   19 1
    35   18   44 1
    36   18   45 1
    37   18   56 1
    38   19   46 1
    39   19   47 1
    40   20   21 1
    41   20   48 1
    42   20   49 1
    43   20   56 1
    44   21   26 ar
    45   21   22 ar
    46   22   23 ar
    47   22   50 1
    48   23   24 ar
    49   23   29 1
    50   24   25 ar
    51   24   51 1
    52   25   26 ar
    53   25   52 1
    54   26   27 1
    55   27   28 1
    56   28   53 1
    57   28   54 1
    58   28   55 1
    59   56   57 1
@<TRIPOS>MOLECULE
ZINC13500612
   71    75     0     0     0
SMALL
USER_CHARGES
3-[[cyclopentyl-[(1R)-2-methyl-1-[1-[[(2S)-tetrahydrofuran-2-yl]methyl]tetrazol-5-yl]propyl]amino]methyl]-8-methyl-1H-quinolin-2-one
@<TRIPOS>ATOM
      1 C1          5.6948    5.7234    9.5729 C.3       1 <0>        -0.1225
      2 C2          5.8493    4.5025    8.7031 C.ar      1 <0>        -0.1274
      3 C3          6.3371    3.3293    9.2378 C.ar      1 <0>        -0.0435
      4 C4          6.4838    2.1978    8.4475 C.ar      1 <0>        -0.1378
      5 C5          6.1470    2.2259    7.1236 C.ar      1 <0>        -0.0495
      6 C6          5.6500    3.4051    6.5596 C.ar      1 <0>        -0.1497
      7 C7          5.4999    4.5549    7.3580 C.ar      1 <0>         0.1966
      8 N1          5.0100    5.7151    6.7969 N.am      1 <0>        -0.6189
      9 H1          4.9071    6.5064    7.3484 H         1 <0>         0.4238
     10 C8          4.6731    5.7655    5.4962 C.2       1 <0>         0.5437
     11 O1          4.2432    6.8081    5.0339 O.2       1 <0>        -0.5349
     12 C9          4.8044    4.6414    4.6529 C.2       1 <0>        -0.2710
     13 C10         5.2746    3.4690    5.1458 C.2       1 <0>         0.0569
     14 C11         4.4147    4.7428    3.2007 C.3       1 <0>         0.0556
     15 C12         2.1596    5.5409    3.5751 C.3       1 <0>         0.0127
     16 C13         0.6952    5.0786    3.7227 C.3       1 <0>        -0.1489
     17 C14        -0.1373    6.3221    3.3201 C.3       1 <0>        -0.1181
     18 C15         0.6852    6.9216    2.1525 C.3       1 <0>        -0.1407
     19 C16         2.1534    6.7124    2.5774 C.3       1 <0>        -0.1415
     20 C17         2.6477    4.1472    1.6562 C.3       1 <0>         0.1196
     21 H2          1.6288    4.4754    1.4507 H         1 <0>         0.1551
     22 C18         3.6031    4.8748    0.7458 C.2       1 <0>         0.1325
     23 N2          4.8835    5.0679    0.9485 N.2       1 <0>        -0.2900
     24 N3          5.3496    5.7304   -0.0534 N.2       1 <0>        -0.0564
     25 N4          4.4008    5.9600   -0.8927 N.2       1 <0>        -0.0283
     26 N5          3.3070    5.4532   -0.4329 N.pl3     1 <0>        -0.2740
     27 C19         1.9913    5.4942   -1.0760 C.3       1 <0>         0.1022
     28 C20         1.3884    6.8912   -0.9155 C.3       1 <0>         0.0374
     29 H3          1.3390    7.1704    0.1370 H         1 <0>         0.0942
     30 C21        -0.0178    6.9566   -1.5641 C.3       1 <0>        -0.1466
     31 C22        -0.1627    8.4668   -1.8724 C.3       1 <0>        -0.1551
     32 C23         1.2868    8.9896   -1.8896 C.3       1 <0>         0.0439
     33 O2          2.1502    7.8627   -1.6640 O.3       1 <0>        -0.3565
     34 C24         2.7573    2.6408    1.4116 C.3       1 <0>        -0.1112
     35 C25         2.3509    2.3273   -0.0298 C.3       1 <0>        -0.1582
     36 C26         4.2009    2.1902    1.6439 C.3       1 <0>        -0.1819
     37 H4          4.7007    5.7276   10.0199 H         1 <0>         0.0811
     38 H5          6.4475    5.7056   10.3611 H         1 <0>         0.0853
     39 H6          5.8245    6.6200    8.9669 H         1 <0>         0.0644
     40 H7          6.6084    3.2903   10.2824 H         1 <0>         0.1419
     41 H8          6.8672    1.2868    8.8829 H         1 <0>         0.1405
     42 H9          6.2643    1.3413    6.5152 H         1 <0>         0.1423
     43 H10         5.3741    2.6027    4.5086 H         1 <0>         0.1556
     44 H11         4.9971    4.0294    2.6176 H         1 <0>         0.1664
     45 H12         4.6118    5.7527    2.8413 H         1 <0>         0.1516
     46 H13         2.5452    5.8732    4.5389 H         1 <0>         0.1572
     47 H14         0.4880    4.2467    3.0496 H         1 <0>         0.0848
     48 H15         0.4864    4.7966    4.7547 H         1 <0>         0.1009
     49 H16        -0.2025    7.0273    4.1486 H         1 <0>         0.0874
     50 H17        -1.1311    6.0288    2.9819 H         1 <0>         0.0910
     51 H18         0.4685    7.9838    2.0391 H         1 <0>         0.0917
     52 H19         0.4773    6.3895    1.2242 H         1 <0>         0.0736
     53 H20         2.5352    7.6135    3.0573 H         1 <0>         0.1114
     54 H21         2.7629    6.4657    1.7081 H         1 <0>         0.0705
     55 H22         1.3355    4.7595   -0.6087 H         1 <0>         0.1253
     56 H23         2.0977    5.2639   -2.1361 H         1 <0>         0.1357
     57 H24        -0.7850    6.6272   -0.8634 H         1 <0>         0.0896
     58 H25        -0.0518    6.3675   -2.4805 H         1 <0>         0.0899
     59 H26        -0.7378    8.9623   -1.0902 H         1 <0>         0.0817
     60 H27        -0.6338    8.6164   -2.8439 H         1 <0>         0.0887
     61 H28         1.4244    9.7263   -1.0981 H         1 <0>         0.0638
     62 H29         1.5095    9.4394   -2.8572 H         1 <0>         0.0951
     63 H30         2.0966    2.1121    2.0986 H         1 <0>         0.1168
     64 H31         2.4290    1.2542   -0.2041 H         1 <0>         0.0927
     65 H32         1.3225    2.6484   -0.1953 H         1 <0>         0.0713
     66 H33         3.0116    2.8561   -0.7168 H         1 <0>         0.0606
     67 H34         4.4570    2.3194    2.6955 H         1 <0>         0.0598
     68 H35         4.3017    1.1395    1.3719 H         1 <0>         0.0928
     69 H36         4.8722    2.7906    1.0300 H         1 <0>         0.0807
     70 N6          2.9785    4.4184    3.0710 N.4       1 <0>        -0.3821
     71 H37         2.7743    3.5802    3.6278 H         1 <0>         0.4287
@<TRIPOS>BOND
     1    1    2 1
     2    1   37 1
     3    1   38 1
     4    1   39 1
     5    2    7 ar
     6    2    3 ar
     7    3    4 ar
     8    3   40 1
     9    4    5 ar
    10    4   41 1
    11    5    6 ar
    12    5   42 1
    13    6   13 1
    14    6    7 ar
    15    7    8 1
    16    8    9 1
    17    8   10 am
    18   10   11 2
    19   10   12 1
    20   12   13 2
    21   12   14 1
    22   13   43 1
    23   14   44 1
    24   14   45 1
    25   14   70 1
    26   15   19 1
    27   15   16 1
    28   15   46 1
    29   15   70 1
    30   16   17 1
    31   16   47 1
    32   16   48 1
    33   17   18 1
    34   17   49 1
    35   17   50 1
    36   18   19 1
    37   18   51 1
    38   18   52 1
    39   19   53 1
    40   19   54 1
    41   20   21 1
    42   20   22 1
    43   20   34 1
    44   20   70 1
    45   22   26 1
    46   22   23 2
    47   23   24 1
    48   24   25 2
    49   25   26 1
    50   26   27 1
    51   27   28 1
    52   27   55 1
    53   27   56 1
    54   28   29 1
    55   28   33 1
    56   28   30 1
    57   30   31 1
    58   30   57 1
    59   30   58 1
    60   31   32 1
    61   31   59 1
    62   31   60 1
    63   32   33 1
    64   32   61 1
    65   32   62 1
    66   34   35 1
    67   34   36 1
    68   34   63 1
    69   35   64 1
    70   35   65 1
    71   35   66 1
    72   36   67 1
    73   36   68 1
    74   36   69 1
    75   70   71 1
@<TRIPOS>MOLECULE
ZINC21728246
   67    71     0     0     0
SMALL
USER_CHARGES
1-(5-oxo-6,7,8,9-tetrahydro-[1,3,4]thiadiazolo[5,4-b]quinazolin-2-yl)-N-[(3S)-3-pyrrolidin-1-ylbutyl]piperidine-4-carboxamide
@<TRIPOS>ATOM
      1 C1          1.1133   14.8679    0.5686 C.3       1 <0>        -0.1876
      2 C2         -0.2619   14.1973    0.5809 C.3       1 <0>         0.0334
      3 H1         -0.8286   14.4617   -0.3241 H         1 <0>         0.1388
      4 C3         -0.0888   12.6805    0.6820 C.3       1 <0>        -0.1589
      5 C4         -1.4557   12.0025    0.5689 C.3       1 <0>         0.1113
      6 N1         -1.2899   10.5502    0.6657 N.am      1 <0>        -0.7461
      7 C5         -2.3664    9.7426    0.5914 C.2       1 <0>         0.5261
      8 O1         -3.4724   10.2183    0.4445 O.2       1 <0>        -0.5296
      9 C6         -2.1959    8.2486    0.6910 C.3       1 <0>        -0.1129
     10 C7         -3.5633    7.5689    0.5780 C.3       1 <0>        -0.0981
     11 C8         -3.3777    6.0504    0.6201 C.3       1 <0>         0.0473
     12 N2         -2.5097    5.6311   -0.4877 N.pl3     1 <0>        -0.4130
     13 C9         -1.1755    6.2342   -0.3743 C.3       1 <0>         0.0534
     14 C10        -1.2954    7.7582   -0.4461 C.3       1 <0>        -0.1078
     15 C11        -2.4260    4.2515   -0.5574 C.2       1 <0>         0.2956
     16 N3         -1.3639    3.4914   -0.5485 N.2       1 <0>        -0.2940
     17 N4         -1.4626    2.1054   -0.6279 N.am      1 <0>        -0.3701
     18 C12        -0.4399    1.2037   -0.6293 C.2       1 <0>         0.5427
     19 O2          0.7149    1.5945   -0.5520 O.2       1 <0>        -0.4995
     20 C13        -0.7068   -0.1693   -0.7194 C.2       1 <0>        -0.2271
     21 C14        -2.0077   -0.5970   -0.8011 C.2       1 <0>         0.1995
     22 N5         -2.9852    0.3131   -0.7959 N.2       1 <0>        -0.4793
     23 C15        -2.7257    1.5914   -0.7149 C.2       1 <0>         0.3125
     24 S1         -3.7425    3.0511   -0.6766 S.3       1 <0>         0.1223
     25 C16        -2.3863   -2.0500   -0.8915 C.3       1 <0>        -0.0731
     26 C17        -1.1820   -2.8918   -1.3110 C.3       1 <0>        -0.1235
     27 C18        -0.0037   -2.5394   -0.3954 C.3       1 <0>        -0.1233
     28 C19         0.4595   -1.1220   -0.7268 C.3       1 <0>        -0.0518
     29 N6         -1.0319   14.6803    1.7350 N.4       1 <0>        -0.4146
     30 C20        -0.2268   14.6053    2.9810 C.3       1 <0>        -0.0173
     31 C21        -0.9467   15.5976    3.9284 C.3       1 <0>        -0.1426
     32 C22        -1.3701   16.7395    2.9761 C.3       1 <0>        -0.1417
     33 C23        -1.3922   16.1055    1.5729 C.3       1 <0>        -0.0052
     34 H2          0.9888   15.9584    0.4959 H         1 <0>         0.0845
     35 H3          1.6899   14.5062   -0.2956 H         1 <0>         0.1071
     36 H4          1.6499   14.6211    1.4966 H         1 <0>         0.0863
     37 H5          0.5625   12.3307   -0.1325 H         1 <0>         0.1209
     38 H6          0.3671   12.4272    1.6505 H         1 <0>         0.0959
     39 H7         -2.1070   12.3523    1.3834 H         1 <0>         0.0554
     40 H8         -1.9116   12.2558   -0.3996 H         1 <0>         0.0820
     41 H9         -0.2868   10.1188    0.7990 H         1 <0>         0.4293
     42 H10        -1.7369    8.0153    1.6630 H         1 <0>         0.1048
     43 H11        -4.2006    7.8856    1.4168 H         1 <0>         0.0935
     44 H12        -4.0381    7.8559   -0.3719 H         1 <0>         0.0923
     45 H13        -2.9153    5.7639    1.5762 H         1 <0>         0.0675
     46 H14        -4.3569    5.5585    0.5244 H         1 <0>         0.1016
     47 H15        -0.7239    5.9472    0.5868 H         1 <0>         0.0686
     48 H16        -0.5406    5.8775   -1.1987 H         1 <0>         0.1044
     49 H17        -1.7341    8.0481   -1.4123 H         1 <0>         0.0877
     50 H18        -0.2981    8.2114   -0.3455 H         1 <0>         0.0863
     51 H19        -2.7412   -2.3982    0.0897 H         1 <0>         0.1000
     52 H20        -3.1863   -2.1748   -1.6361 H         1 <0>         0.0987
     53 H21        -1.4288   -3.9593   -1.2131 H         1 <0>         0.0832
     54 H22        -0.9256   -2.6692   -2.3573 H         1 <0>         0.0719
     55 H23        -0.3265   -2.5933    0.6548 H         1 <0>         0.0698
     56 H24         0.8173   -3.2519   -0.5636 H         1 <0>         0.0799
     57 H25         0.9259   -1.1228   -1.7230 H         1 <0>         0.0823
     58 H26         1.1980   -0.8034    0.0236 H         1 <0>         0.0844
     59 H27        -0.2387   13.5741    3.3637 H         1 <0>         0.1287
     60 H28         0.8097   14.9048    2.7665 H         1 <0>         0.1388
     61 H29        -1.8064   15.0976    4.3985 H         1 <0>         0.0966
     62 H30        -0.2469   15.9337    4.7077 H         1 <0>         0.1150
     63 H31        -2.3634   17.1111    3.2681 H         1 <0>         0.1063
     64 H32        -0.6391   17.5591    3.0386 H         1 <0>         0.1046
     65 H33        -0.6607   16.5959    0.9138 H         1 <0>         0.1308
     66 H34        -2.3954   16.1818    1.1282 H         1 <0>         0.1314
     67 H35        -1.9262   14.0419    1.7867 H         1 <0>         0.4435
@<TRIPOS>BOND
     1    1    2 1
     2    1   34 1
     3    1   35 1
     4    1   36 1
     5    2    3 1
     6    2    4 1
     7    2   29 1
     8    4    5 1
     9    4   37 1
    10    4   38 1
    11    5    6 1
    12    5   39 1
    13    5   40 1
    14    6    7 am
    15    6   41 1
    16    7    8 2
    17    7    9 1
    18    9   14 1
    19    9   10 1
    20    9   42 1
    21   10   11 1
    22   10   43 1
    23   10   44 1
    24   11   12 1
    25   11   45 1
    26   11   46 1
    27   12   13 1
    28   12   15 1
    29   13   14 1
    30   13   47 1
    31   13   48 1
    32   14   49 1
    33   14   50 1
    34   15   24 1
    35   15   16 2
    36   16   17 1
    37   17   23 1
    38   17   18 am
    39   18   19 2
    40   18   20 1
    41   20   28 1
    42   20   21 2
    43   21   22 1
    44   21   25 1
    45   22   23 2
    46   23   24 1
    47   25   26 1
    48   25   51 1
    49   25   52 1
    50   26   27 1
    51   26   53 1
    52   26   54 1
    53   27   28 1
    54   27   55 1
    55   27   56 1
    56   28   57 1
    57   28   58 1
    58   29   33 1
    59   29   30 1
    60   29   67 1
    61   30   31 1
    62   30   59 1
    63   30   60 1
    64   31   32 1
    65   31   61 1
    66   31   62 1
    67   32   33 1
    68   32   63 1
    69   32   64 1
    70   33   65 1
    71   33   66 1
@<TRIPOS>MOLECULE
ZINC35818923
   56    60     0     0     0
SMALL
USER_CHARGES

@<TRIPOS>ATOM
      1 C1          1.2094   -0.6829   -0.0260 C.ar      1 <0>        -0.0558
      2 C2          2.3979    0.0209   -0.0345 C.ar      1 <0>        -0.1832
      3 C3          2.3816    1.4097   -0.0131 C.ar      1 <0>         0.2102
      4 C4          1.1691    2.0868    0.0169 C.ar      1 <0>        -0.1808
      5 C5         -0.0166    1.3770    0.0253 C.ar      1 <0>         0.0116
      6 C6          0.0038   -0.0070    0.0039 C.ar      1 <0>        -0.1479
      7 Cl1        -1.5329    2.2215    0.0634 Cl        1 <0>        -0.0533
      8 N1          3.5819    2.1238   -0.0212 N.pl3     1 <0>        -0.6428
      9 C7          3.5881    3.5917   -0.1177 C.3       1 <0>         0.0991
     10 C8          4.5524    4.0009   -1.2359 C.3       1 <0>        -0.0216
     11 N2          5.8707    3.4044   -0.9867 N.4       1 <0>        -0.3849
     12 C9          5.7793    1.9407   -1.0599 C.3       1 <0>        -0.0275
     13 C10         4.8756    1.4298    0.0728 C.3       1 <0>         0.1033
     14 C11         6.8225    3.8848   -1.9973 C.3       1 <0>         0.1081
     15 C12         8.2018    3.3720   -1.6722 C.2       1 <0>         0.1117
     16 N3          8.7085    2.2540   -2.0983 N.2       1 <0>        -0.4078
     17 C13         9.9683    2.1332   -1.5985 C.2       1 <0>        -0.0654
     18 C14        10.2064    3.2392   -0.8421 C.2       1 <0>         0.0706
     19 O1          9.1019    4.0001   -0.9026 O.3       1 <0>        -0.1811
     20 C15        10.8996    1.0146   -1.8319 C.2       1 <0>         0.5964
     21 O2         12.0046    1.0273   -1.3241 O.2       1 <0>        -0.5164
     22 N4         10.5266   -0.0221   -2.6082 N.am      1 <0>        -0.7051
     23 C16        11.4522   -1.1337   -2.8402 C.3       1 <0>         0.1651
     24 C17        10.7972   -2.1544   -3.7347 C.ar      1 <0>        -0.1096
     25 C18        10.0566   -3.1824   -3.1815 C.ar      1 <0>        -0.0867
     26 C19         9.4534   -4.1208   -3.9979 C.ar      1 <0>        -0.1026
     27 C20         9.5905   -4.0332   -5.3738 C.ar      1 <0>         0.0474
     28 C21        10.3366   -2.9977   -5.9311 C.ar      1 <0>         0.0327
     29 C22        10.9335   -2.0575   -5.1070 C.ar      1 <0>        -0.0807
     30 O3         10.3206   -3.1305   -7.2895 O.3       1 <0>        -0.3064
     31 C23         9.9005   -4.4851   -7.5385 C.3       1 <0>         0.2123
     32 O4          9.1070   -4.8147   -6.3831 O.3       1 <0>        -0.3059
     33 H1          1.2219   -1.7626   -0.0473 H         1 <0>         0.1392
     34 H2          3.3391   -0.5082   -0.0575 H         1 <0>         0.1295
     35 H3          1.1530    3.1665    0.0341 H         1 <0>         0.1342
     36 H4         -0.9239   -0.5598    0.0102 H         1 <0>         0.1382
     37 H5          2.5846    3.9477   -0.3509 H         1 <0>         0.1306
     38 H6          3.9211    4.0195    0.8279 H         1 <0>         0.0919
     39 H7          4.1690    3.6483   -2.1935 H         1 <0>         0.1401
     40 H8          4.6432    5.0869   -1.2583 H         1 <0>         0.1480
     41 H9          5.3588    1.6505   -2.0227 H         1 <0>         0.1411
     42 H10         6.7742    1.5085   -0.9525 H         1 <0>         0.1400
     43 H11         5.3365    1.6430    1.0373 H         1 <0>         0.0897
     44 H12         4.7237    0.3558   -0.0344 H         1 <0>         0.1298
     45 H13         6.5225    3.5223   -2.9804 H         1 <0>         0.1705
     46 H14         6.8312    4.9748   -1.9990 H         1 <0>         0.1638
     47 H15        11.1129    3.4641   -0.2997 H         1 <0>         0.2487
     48 H16         9.6453   -0.0322   -3.0132 H         1 <0>         0.4094
     49 H17        12.3573   -0.7591   -3.3182 H         1 <0>         0.0876
     50 H18        11.7095   -1.5971   -1.8877 H         1 <0>         0.0902
     51 H19         9.9492   -3.2526   -2.1091 H         1 <0>         0.1409
     52 H20         8.8754   -4.9227   -3.5631 H         1 <0>         0.1409
     53 H21        11.5090   -1.2508   -5.5366 H         1 <0>         0.1382
     54 H22         9.2977   -4.5387   -8.4450 H         1 <0>         0.1373
     55 H23        10.7638   -5.1465   -7.6116 H         1 <0>         0.0908
     56 H24         6.1929    3.6746   -0.0695 H         1 <0>         0.4264
@<TRIPOS>BOND
     1    1    6 ar
     2    1    2 ar
     3    1   33 1
     4    2    3 ar
     5    2   34 1
     6    3    4 ar
     7    3    8 1
     8    4    5 ar
     9    4   35 1
    10    5    6 ar
    11    5    7 1
    12    6   36 1
    13    8   13 1
    14    8    9 1
    15    9   10 1
    16    9   37 1
    17    9   38 1
    18   10   11 1
    19   10   39 1
    20   10   40 1
    21   11   12 1
    22   11   14 1
    23   11   56 1
    24   12   13 1
    25   12   41 1
    26   12   42 1
    27   13   43 1
    28   13   44 1
    29   14   15 1
    30   14   45 1
    31   14   46 1
    32   15   19 1
    33   15   16 2
    34   16   17 1
    35   17   18 2
    36   17   20 1
    37   18   19 1
    38   18   47 1
    39   20   21 2
    40   20   22 am
    41   22   23 1
    42   22   48 1
    43   23   24 1
    44   23   49 1
    45   23   50 1
    46   24   29 ar
    47   24   25 ar
    48   25   26 ar
    49   25   51 1
    50   26   27 ar
    51   26   52 1
    52   27   32 1
    53   27   28 ar
    54   28   29 ar
    55   28   30 1
    56   29   53 1
    57   30   31 1
    58   31   32 1
    59   31   54 1
    60   31   55 1
@<TRIPOS>MOLECULE
ZINC63385591
   63    68     0     0     0
SMALL
USER_CHARGES

@<TRIPOS>ATOM
      1 C1          0.2381    1.6227   -3.5949 C.3       1 <0>         0.0258
      2 O1          0.2395    0.1994   -3.7223 O.3       1 <0>        -0.3113
      3 C2          1.0306   -0.4962   -2.8637 C.ar      1 <0>         0.1855
      4 C3          1.0836   -1.8797   -2.9364 C.ar      1 <0>        -0.1898
      5 C4          1.8920   -2.5900   -2.0596 C.ar      1 <0>         0.2257
      6 C5          2.6470   -1.9144   -1.1106 C.ar      1 <0>        -0.2160
      7 C6          2.5931   -0.5309   -1.0391 C.ar      1 <0>         0.1879
      8 C7          1.7892    0.1785   -1.9188 C.ar      1 <0>        -0.3113
      9 O2          3.3317    0.1306   -0.1098 O.3       1 <0>        -0.3114
     10 C8          3.2278    1.5557   -0.0928 C.3       1 <0>         0.0259
     11 N1          1.9456   -3.9863   -2.1320 N.am      1 <0>        -0.6673
     12 C9          1.8192   -4.6046   -3.3229 C.2       1 <0>         0.5241
     13 O3          1.7525   -3.9503   -4.3419 O.2       1 <0>        -0.4811
     14 C10         1.7608   -6.1091   -3.3883 C.3       1 <0>        -0.1109
     15 H1          2.2125   -6.5549   -2.5021 H         1 <0>         0.1205
     16 C11         0.2771   -6.6105   -3.5811 C.3       1 <0>         0.1067
     17 H2         -0.2879   -6.7968   -2.6678 H         1 <0>         0.1571
     18 C12        -0.3008   -5.5520   -4.5285 C.2       1 <0>        -0.1682
     19 C13         0.2670   -5.7941   -5.7009 C.2       1 <0>        -0.1529
     20 C14         1.1341   -7.0222   -5.4926 C.3       1 <0>         0.0956
     21 C15         2.4152   -6.6220   -4.6459 C.3       1 <0>        -0.1703
     22 H3          2.9965   -7.5137   -4.4111 H         1 <0>         0.1299
     23 C16         3.1412   -5.8307   -5.6556 C.2       1 <0>         0.5576
     24 O4          3.8253   -4.8507   -5.4496 O.2       1 <0>        -0.4765
     25 N2          2.8956   -6.4152   -6.8746 N.am      1 <0>        -0.6365
     26 C17         1.8510   -7.4456   -6.7371 C.3       1 <0>         0.1457
     27 C18         3.5423   -6.0425   -8.1352 C.3       1 <0>         0.1422
     28 C19         4.8115   -6.8760   -8.3231 C.3       1 <0>        -0.1142
     29 C20         5.4769   -6.4926   -9.6198 C.2       1 <0>         0.0725
     30 C21         6.4787   -5.5993   -9.7867 C.ar      1 <0>        -0.1708
     31 C22         7.2196   -4.7491   -8.8472 C.ar      1 <0>        -0.0067
     32 C23         8.1913   -3.9376   -9.3231 C.ar      1 <0>        -0.1547
     33 C24         8.5074   -3.8879  -10.6877 C.ar      1 <0>         0.0572
     34 C25         7.8710   -4.6389  -11.6114 C.ar      1 <0>        -0.2128
     35 C26         6.8320   -5.5287  -11.2226 C.ar      1 <0>         0.3277
     36 N3          6.0779   -6.3464  -11.9163 N.pl3     1 <0>        -0.5889
     37 C27         5.1639   -7.0335  -10.9970 C.3       1 <0>         0.0618
     38 O5          0.4575   -7.7756   -4.4897 O.3       1 <0>        -0.3119
     39 H4         -0.1009    1.8977   -2.5961 H         1 <0>         0.0577
     40 H5          1.2474    2.0026   -3.7534 H         1 <0>         0.0560
     41 H6         -0.4331    2.0533   -4.3379 H         1 <0>         0.1037
     42 H7          0.4957   -2.4047   -3.6747 H         1 <0>         0.1422
     43 H8          3.2759   -2.4665   -0.4279 H         1 <0>         0.1361
     44 H9          1.7509    1.2565   -1.8656 H         1 <0>         0.1364
     45 H10         2.1934    1.8423    0.0971 H         1 <0>         0.0577
     46 H11         3.8663    1.9573    0.6940 H         1 <0>         0.1050
     47 H12         3.5442    1.9546   -1.0566 H         1 <0>         0.0563
     48 H13         2.0737   -4.5092   -1.3252 H         1 <0>         0.4148
     49 H14        -1.0156   -4.7778   -4.2917 H         1 <0>         0.1555
     50 H15         0.1390   -5.2339   -6.6154 H         1 <0>         0.1492
     51 H16         2.3244   -8.4181   -6.6023 H         1 <0>         0.0883
     52 H17         1.1741   -7.4585   -7.5913 H         1 <0>         0.1018
     53 H18         2.8589   -6.2296   -8.9634 H         1 <0>         0.0917
     54 H19         3.8028   -4.9844   -8.1109 H         1 <0>         0.0934
     55 H20         5.4950   -6.6889   -7.4949 H         1 <0>         0.1111
     56 H21         4.5511   -7.9341   -8.3473 H         1 <0>         0.1163
     57 H22         6.9920   -4.7710   -7.7917 H         1 <0>         0.1609
     58 H23         8.7377   -3.3112   -8.6336 H         1 <0>         0.1575
     59 H24         9.2921   -3.2212  -11.0136 H         1 <0>         0.1606
     60 H25         8.1523   -4.5633  -12.6515 H         1 <0>         0.1601
     61 H26         5.3368   -8.1093  -11.0263 H         1 <0>         0.1739
     62 H27         4.1303   -6.8111  -11.2621 H         1 <0>         0.1727
     63 H28         6.1199   -6.4781  -12.8765 H         1 <0>         0.4553
@<TRIPOS>BOND
     1    1    2 1
     2    1   39 1
     3    1   40 1
     4    1   41 1
     5    2    3 1
     6    3    8 ar
     7    3    4 ar
     8    4    5 ar
     9    4   42 1
    10    5    6 ar
    11    5   11 1
    12    6    7 ar
    13    6   43 1
    14    7    8 ar
    15    7    9 1
    16    8   44 1
    17    9   10 1
    18   10   45 1
    19   10   46 1
    20   10   47 1
    21   11   12 am
    22   11   48 1
    23   12   13 2
    24   12   14 1
    25   14   15 1
    26   14   21 1
    27   14   16 1
    28   16   17 1
    29   16   38 1
    30   16   18 1
    31   18   19 2
    32   18   49 1
    33   19   20 1
    34   19   50 1
    35   20   26 1
    36   20   21 1
    37   20   38 1
    38   21   22 1
    39   21   23 1
    40   23   24 2
    41   23   25 am
    42   25   26 1
    43   25   27 1
    44   26   51 1
    45   26   52 1
    46   27   28 1
    47   27   53 1
    48   27   54 1
    49   28   29 1
    50   28   55 1
    51   28   56 1
    52   29   37 1
    53   29   30 2
    54   30   35 ar
    55   30   31 ar
    56   31   32 ar
    57   31   57 1
    58   32   33 ar
    59   32   58 1
    60   33   34 ar
    61   33   59 1
    62   34   35 ar
    63   34   60 1
    64   35   36 2
    65   36   37 1
    66   36   63 1
    67   37   61 1
    68   37   62 1
@<TRIPOS>MOLECULE
ZINC09446755
   59    61     0     0     0
SMALL
USER_CHARGES
methyl 8-[4-(butyl-methyl-sulfamoyl)benzoyl]amino-9-cyano-7-thia-4-azabicyclo[4.3.0]nona-8,10-diene-4-carboxylate
@<TRIPOS>ATOM
      1 C1         -5.6802    0.6337   -1.3588 C.3       1 <0>        -0.1537
      2 C2         -4.2959    0.3265   -1.9336 C.3       1 <0>        -0.1241
      3 C3         -3.2670    1.2798   -1.3225 C.3       1 <0>        -0.1456
      4 C4         -1.8827    0.9727   -1.8973 C.3       1 <0>         0.1091
      5 N1         -0.8975    1.8855   -1.3122 N.pl3     1 <0>        -0.9973
      6 C5         -0.6910    3.2129   -1.8967 C.3       1 <0>         0.0900
      7 S1         -0.0172    1.4168    0.0098 S.o2      1 <0>         2.6869
      8 O1          0.0021   -0.0041    0.0020 O.2       1 <0>        -0.9455
      9 O2          1.1718    2.1948    0.0027 O.2       1 <0>        -0.9461
     10 C6         -0.9267    1.9002    1.4394 C.ar      1 <0>        -0.6493
     11 C7         -0.7145    3.1464    2.0018 C.ar      1 <0>        -0.0238
     12 C8         -1.4267    3.5331    3.1182 C.ar      1 <0>        -0.1046
     13 C9         -2.3559    2.6599    3.6865 C.ar      1 <0>        -0.0835
     14 C10        -2.5613    1.4019    3.1171 C.ar      1 <0>        -0.0695
     15 C11        -1.8459    1.0297    1.9979 C.ar      1 <0>        -0.0235
     16 C12        -3.1192    3.0655    4.8853 C.2       1 <0>         0.5560
     17 O3         -3.9280    2.3032    5.3777 O.2       1 <0>        -0.4801
     18 N2         -2.9185    4.2807    5.4326 N.am      1 <0>        -0.6143
     19 C13        -3.6347    4.6614    6.5575 C.2       1 <0>         0.0890
     20 C14        -3.5648    5.8551    7.2605 C.2       1 <0>        -0.1246
     21 C15        -4.4326    6.0080    8.4161 C.2       1 <0>        -0.0452
     22 C16        -5.2207    4.9432    8.6847 C.2       1 <0>        -0.2409
     23 S2         -4.8285    3.7583    7.4303 S.3       1 <0>         0.2939
     24 C17        -6.2085    4.8163    9.8050 C.3       1 <0>         0.2030
     25 N3         -6.0012    5.9713   10.7008 N.am      1 <0>        -0.5952
     26 C18        -5.7784    7.2840   10.0759 C.3       1 <0>         0.1296
     27 C19        -4.4696    7.2592    9.2843 C.3       1 <0>        -0.0807
     28 C20        -6.0151    5.8282   12.0409 C.2       1 <0>         0.6561
     29 O4         -5.8419    6.7945   12.7570 O.2       1 <0>        -0.5649
     30 O5         -6.2209    4.6145   12.5862 O.3       1 <0>        -0.3696
     31 C21        -6.2228    4.5350   14.0360 C.3       1 <0>         0.0556
     32 C22        -2.6723    6.9007    6.8597 C.1       1 <0>         0.2632
     33 N4         -1.9643    7.7302    6.5417 N.1       1 <0>        -0.4148
     34 H1         -5.9520    1.6623   -1.5959 H         1 <0>         0.0534
     35 H2         -6.4132   -0.0455   -1.7941 H         1 <0>         0.0568
     36 H3         -5.6615    0.5031   -0.2768 H         1 <0>         0.0540
     37 H4         -4.3146    0.4572   -3.0156 H         1 <0>         0.0660
     38 H5         -4.0241   -0.7020   -1.6964 H         1 <0>         0.0672
     39 H6         -3.2483    1.1492   -0.2405 H         1 <0>         0.0627
     40 H7         -3.5388    2.3084   -1.5597 H         1 <0>         0.0700
     41 H8         -1.9014    1.1033   -2.9793 H         1 <0>         0.0897
     42 H9         -1.6109   -0.0559   -1.6602 H         1 <0>         0.0967
     43 H10         0.0846    3.1569   -2.6605 H         1 <0>         0.0656
     44 H11        -1.6207    3.5599   -2.3476 H         1 <0>         0.0771
     45 H12        -0.3833    3.9094   -1.1167 H         1 <0>         0.0716
     46 H13         0.0074    3.8196    1.5634 H         1 <0>         0.1511
     47 H14        -1.2631    4.5077    3.5539 H         1 <0>         0.1358
     48 H15        -3.2789    0.7218    3.5516 H         1 <0>         0.1534
     49 H16        -2.0038    0.0568    1.5563 H         1 <0>         0.1531
     50 H17        -2.2732    4.8890    5.0397 H         1 <0>         0.4226
     51 H18        -7.2237    4.8313    9.4085 H         1 <0>         0.0968
     52 H19        -6.0352    3.8881   10.3495 H         1 <0>         0.1111
     53 H20        -6.6055    7.5108    9.4031 H         1 <0>         0.0853
     54 H21        -5.7198    8.0493   10.8499 H         1 <0>         0.1071
     55 H22        -4.4106    8.1441    8.6504 H         1 <0>         0.0933
     56 H23        -3.6264    7.2483    9.9749 H         1 <0>         0.0889
     57 H24        -6.3989    3.5040   14.3431 H         1 <0>         0.1053
     58 H25        -5.2587    4.8687   14.4195 H         1 <0>         0.0644
     59 H26        -7.0125    5.1724   14.4338 H         1 <0>         0.0651
@<TRIPOS>BOND
     1    1    2 1
     2    1   34 1
     3    1   35 1
     4    1   36 1
     5    2    3 1
     6    2   37 1
     7    2   38 1
     8    3    4 1
     9    3   39 1
    10    3   40 1
    11    4    5 1
    12    4   41 1
    13    4   42 1
    14    5    6 1
    15    5    7 1
    16    6   43 1
    17    6   44 1
    18    6   45 1
    19    7    8 2
    20    7    9 2
    21    7   10 1
    22   10   15 ar
    23   10   11 ar
    24   11   12 ar
    25   11   46 1
    26   12   13 ar
    27   12   47 1
    28   13   14 ar
    29   13   16 1
    30   14   15 ar
    31   14   48 1
    32   15   49 1
    33   16   17 2
    34   16   18 am
    35   18   19 1
    36   18   50 1
    37   19   23 1
    38   19   20 2
    39   20   21 1
    40   20   32 1
    41   21   27 1
    42   21   22 2
    43   22   23 1
    44   22   24 1
    45   24   25 1
    46   24   51 1
    47   24   52 1
    48   25   26 1
    49   25   28 am
    50   26   27 1
    51   26   53 1
    52   26   54 1
    53   27   55 1
    54   27   56 1
    55   28   29 2
    56   28   30 1
    57   30   31 1
    58   31   57 1
    59   31   58 1
    60   31   59 1
    61   32   33 3
@<TRIPOS>MOLECULE
ZINC12793615
   48    51     0     0     0
SMALL
USER_CHARGES
2-[2-[2-[(2S)-3-(4-bromophenoxy)-2-hydroxy-propyl]tetrazol-5-yl]ethyl]isoindoline-1,3-dione
@<TRIPOS>ATOM
      1 C1         -1.3713   -8.9280   -4.8574 C.ar      1 <0>        -0.0939
      2 C2         -1.3936   -8.1112   -5.9724 C.ar      1 <0>        -0.0944
      3 C3         -1.4103   -6.7322   -5.8329 C.ar      1 <0>        -0.0434
      4 C4         -1.4046   -6.1697   -4.5666 C.ar      1 <0>        -0.1415
      5 C5         -1.3818   -7.0026   -3.4298 C.ar      1 <0>        -0.1404
      6 C6         -1.3653   -8.3795   -3.5845 C.ar      1 <0>        -0.0432
      7 C7         -1.3817   -6.0947   -2.2632 C.2       1 <0>         0.5738
      8 O1         -1.3651   -6.4375   -1.0983 O.2       1 <0>        -0.4527
      9 N1         -1.4030   -4.8253   -2.7080 N.am      1 <0>        -0.5768
     10 C8         -1.4225   -4.7839   -4.0525 C.2       1 <0>         0.5751
     11 O2         -1.4480   -3.7766   -4.7304 O.2       1 <0>        -0.4566
     12 C9         -1.4103   -3.6436   -1.8421 C.3       1 <0>         0.1193
     13 C10         0.0294   -3.2129   -1.5548 C.3       1 <0>        -0.0380
     14 C11         0.0219   -1.9974   -0.6641 C.2       1 <0>         0.1728
     15 N2          0.0344   -1.9898    0.6690 N.2       1 <0>        -0.2720
     16 N3          0.0218   -0.7565    1.0469 N.2       1 <0>        -0.0430
     17 N4          0.0021   -0.0041    0.0020 N.pl3     1 <0>        -0.1359
     18 N5         -0.0030   -0.7459   -1.0519 N.2       1 <0>        -0.2996
     19 C12        -0.0178    1.4608    0.0101 C.3       1 <0>         0.0987
     20 C13         1.4176    1.9904   -0.0008 C.3       1 <0>         0.0962
     21 H1          1.9544    1.5676   -0.8500 H         1 <0>         0.1239
     22 C14         1.3975    3.5157   -0.1181 C.3       1 <0>         0.0302
     23 O3          2.7355    4.0013   -0.2454 O.3       1 <0>        -0.2964
     24 C15         2.8955    5.3461   -0.3608 C.ar      1 <0>         0.1440
     25 C16         1.7871    6.1803   -0.3573 C.ar      1 <0>        -0.2054
     26 C17         1.9523    7.5473   -0.4684 C.ar      1 <0>        -0.0485
     27 C18         3.2213    8.0836   -0.5950 C.ar      1 <0>        -0.1286
     28 C19         4.3275    7.2529   -0.6049 C.ar      1 <0>        -0.0488
     29 C20         4.1671    5.8859   -0.4879 C.ar      1 <0>        -0.1427
     30 Br1         3.4440    9.9547   -0.7542 Br        1 <0>        -0.0468
     31 O4          2.0732    1.6145    1.2121 O.3       1 <0>        -0.5369
     32 H2         -1.3588  -10.0011   -4.9790 H         1 <0>         0.1441
     33 H3         -1.3985   -8.5505   -6.9590 H         1 <0>         0.1439
     34 H4         -1.4281   -6.0989   -6.7076 H         1 <0>         0.1434
     35 H5         -1.3475   -9.0225   -2.7170 H         1 <0>         0.1440
     36 H6         -1.9118   -3.8833   -0.9045 H         1 <0>         0.1055
     37 H7         -1.9399   -2.8315   -2.3402 H         1 <0>         0.1029
     38 H8          0.5310   -2.9733   -2.4924 H         1 <0>         0.1022
     39 H9          0.5591   -4.0251   -1.0567 H         1 <0>         0.1064
     40 H10        -0.5450    1.8219   -0.8730 H         1 <0>         0.1316
     41 H11        -0.5280    1.8123    0.9069 H         1 <0>         0.1279
     42 H12         0.8209    3.8050   -0.9967 H         1 <0>         0.0826
     43 H13         0.9394    3.9428    0.7739 H         1 <0>         0.0779
     44 H14         0.7960    5.7616   -0.2629 H         1 <0>         0.1362
     45 H15         1.0900    8.1974   -0.4609 H         1 <0>         0.1370
     46 H16         5.3173    7.6736   -0.7039 H         1 <0>         0.1418
     47 H17         5.0310    5.2378   -0.4949 H         1 <0>         0.1422
     48 H18         1.6489    1.9566    2.0108 H         1 <0>         0.3821
@<TRIPOS>BOND
     1    1    6 ar
     2    1    2 ar
     3    1   32 1
     4    2    3 ar
     5    2   33 1
     6    3    4 ar
     7    3   34 1
     8    4   10 1
     9    4    5 ar
    10    5    6 ar
    11    5    7 1
    12    6   35 1
    13    7    8 2
    14    7    9 am
    15    9   10 am
    16    9   12 1
    17   10   11 2
    18   12   13 1
    19   12   36 1
    20   12   37 1
    21   13   14 1
    22   13   38 1
    23   13   39 1
    24   14   18 2
    25   14   15 1
    26   15   16 2
    27   16   17 1
    28   17   18 1
    29   17   19 1
    30   19   20 1
    31   19   40 1
    32   19   41 1
    33   20   21 1
    34   20   22 1
    35   20   31 1
    36   22   23 1
    37   22   42 1
    38   22   43 1
    39   23   24 1
    40   24   29 ar
    41   24   25 ar
    42   25   26 ar
    43   25   44 1
    44   26   27 ar
    45   26   45 1
    46   27   28 ar
    47   27   30 1
    48   28   29 ar
    49   28   46 1
    50   29   47 1
    51   31   48 1
@<TRIPOS>MOLECULE
ZINC21859887
   65    70     0     0     0
SMALL
USER_CHARGES
(3R)-2-(1,3-benzodioxol-5-ylmethyl)-7-methoxy-3-methyl-1-oxo-N-[[(2S)-tetrahydrofuran-2-yl]methyl]-4H-pyrazino[4,5-a]indole-3-carboxamide
@<TRIPOS>ATOM
      1 C1          2.5785    2.3941   -2.7631 C.3       1 <0>        -0.1534
      2 C2          3.7267    1.5973   -2.1405 C.3       1 <0>         0.1519
      3 C3          4.6945    1.1797   -3.2464 C.3       1 <0>         0.1116
      4 N1          4.0881    0.1050   -4.0403 N.pl3     1 <0>        -0.4675
      5 C4          4.2524   -0.2196   -5.3450 C.ar      1 <0>         0.1741
      6 C5          5.0183    0.3501   -6.3612 C.ar      1 <0>        -0.1855
      7 C6          4.9553   -0.2503   -7.6112 C.ar      1 <0>         0.1677
      8 C7          4.1685   -1.3719   -7.8553 C.ar      1 <0>        -0.2354
      9 C8          3.4057   -1.9519   -6.8765 C.ar      1 <0>        -0.0062
     10 C9          3.4478   -1.3642   -5.6028 C.ar      1 <0>        -0.1638
     11 C10         2.7966   -1.6959   -4.4016 C.2       1 <0>        -0.0701
     12 C11         3.1852   -0.7988   -3.4707 C.2       1 <0>        -0.0205
     13 C12         2.7919   -0.6745   -2.0575 C.2       1 <0>         0.6020
     14 O1          2.1538   -1.5432   -1.4931 O.2       1 <0>        -0.4986
     15 N2          3.1727    0.4569   -1.4202 N.am      1 <0>        -0.6051
     16 C13         3.0299    0.5360    0.0357 C.3       1 <0>         0.1193
     17 C14         1.6653    1.0761    0.3779 C.ar      1 <0>        -0.1028
     18 C15         0.5897    0.2143    0.4867 C.ar      1 <0>        -0.0794
     19 C16        -0.6651    0.7057    0.7949 C.ar      1 <0>        -0.1026
     20 C17        -0.8453    2.0629    1.0073 C.ar      1 <0>         0.0386
     21 C18         0.2381    2.9311    0.8972 C.ar      1 <0>         0.0297
     22 C19         1.4916    2.4323    0.5819 C.ar      1 <0>        -0.0854
     23 O2         -0.1948    4.2022    1.1425 O.3       1 <0>        -0.3094
     24 C20        -1.6270    4.1545    1.0015 C.3       1 <0>         0.2085
     25 O3         -1.9569    2.7900    1.3217 O.3       1 <0>        -0.3042
     26 O4          5.6856    0.2741   -8.6294 O.3       1 <0>        -0.3169
     27 C21         5.5901   -0.3762   -9.8983 C.3       1 <0>         0.0229
     28 C22         4.4587    2.4813   -1.1638 C.2       1 <0>         0.5238
     29 O5          4.2646    3.6785   -1.1662 O.2       1 <0>        -0.5074
     30 N3          5.3290    1.9415   -0.2876 N.am      1 <0>        -0.7335
     31 C23         6.1220    2.8096    0.5863 C.3       1 <0>         0.1189
     32 C24         7.0228    1.9512    1.4765 C.3       1 <0>         0.0590
     33 H1          6.4015    1.1692    1.9375 H         1 <0>         0.0788
     34 C25         7.7765    2.8375    2.4928 C.3       1 <0>        -0.1460
     35 C26         9.1726    2.1839    2.5981 C.3       1 <0>        -0.1560
     36 C27         9.0972    0.9800    1.6331 C.3       1 <0>         0.0462
     37 O6          8.0609    1.3280    0.6892 O.3       1 <0>        -0.3683
     38 H2          2.9855    3.2577   -3.3095 H         1 <0>         0.0819
     39 H3          1.9044    2.7473   -1.9689 H         1 <0>         0.0766
     40 H4          2.0202    1.7502   -3.4585 H         1 <0>         0.0703
     41 H5          4.9049    2.0430   -3.8948 H         1 <0>         0.1156
     42 H6          5.6324    0.8215   -2.7969 H         1 <0>         0.0953
     43 H7          5.6327    1.2204   -6.1839 H         1 <0>         0.1362
     44 H8          4.1592   -1.7986   -8.8474 H         1 <0>         0.1300
     45 H9          2.7990   -2.8228   -7.0760 H         1 <0>         0.1397
     46 H10         2.1121   -2.5176   -4.2512 H         1 <0>         0.1584
     47 H11         3.1467   -0.4676    0.4706 H         1 <0>         0.1062
     48 H12         3.8019    1.2047    0.4441 H         1 <0>         0.1153
     49 H13         0.7293   -0.8445    0.3262 H         1 <0>         0.1480
     50 H14        -1.5044    0.0308    0.8746 H         1 <0>         0.1373
     51 H15         2.3335    3.1032    0.4959 H         1 <0>         0.1322
     52 H16        -2.0881    4.8693    1.6990 H         1 <0>         0.1345
     53 H17        -1.9029    4.4188   -0.0300 H         1 <0>         0.0857
     54 H18         6.2267    0.1468  -10.6271 H         1 <0>         0.1026
     55 H19         4.5456   -0.3562  -10.2428 H         1 <0>         0.0588
     56 H20         5.9244   -1.4197   -9.8016 H         1 <0>         0.0589
     57 H21         5.4439    0.8491   -0.2287 H         1 <0>         0.4311
     58 H22         6.7432    3.4786   -0.0273 H         1 <0>         0.0811
     59 H23         5.4486    3.4096    1.2160 H         1 <0>         0.0882
     60 H24         7.8296    3.8681    2.1120 H         1 <0>         0.0817
     61 H25         7.2419    2.8290    3.4541 H         1 <0>         0.0825
     62 H26         9.9412    2.9100    2.2948 H         1 <0>         0.0779
     63 H27         9.3536    1.8709    3.6370 H         1 <0>         0.0801
     64 H28        10.0704    0.8450    1.1386 H         1 <0>         0.0955
     65 H29         8.8445    0.0714    2.1994 H         1 <0>         0.0634
@<TRIPOS>BOND
     1    1    2 1
     2    1   38 1
     3    1   39 1
     4    1   40 1
     5    2   15 1
     6    2    3 1
     7    2   28 1
     8    3    4 1
     9    3   41 1
    10    3   42 1
    11    4   12 1
    12    4    5 1
    13    5   10 ar
    14    5    6 ar
    15    6    7 ar
    16    6   43 1
    17    7    8 ar
    18    7   26 1
    19    8    9 ar
    20    8   44 1
    21    9   10 ar
    22    9   45 1
    23   10   11 1
    24   11   12 2
    25   11   46 1
    26   12   13 1
    27   13   14 2
    28   13   15 am
    29   15   16 1
    30   16   17 1
    31   16   47 1
    32   16   48 1
    33   17   22 ar
    34   17   18 ar
    35   18   19 ar
    36   18   49 1
    37   19   20 ar
    38   19   50 1
    39   20   25 1
    40   20   21 ar
    41   21   22 ar
    42   21   23 1
    43   22   51 1
    44   23   24 1
    45   24   25 1
    46   24   52 1
    47   24   53 1
    48   26   27 1
    49   27   54 1
    50   27   55 1
    51   27   56 1
    52   28   29 2
    53   28   30 am
    54   30   31 1
    55   30   57 1
    56   31   32 1
    57   31   58 1
    58   31   59 1
    59   32   33 1
    60   32   37 1
    61   32   34 1
    62   34   35 1
    63   34   60 1
    64   34   61 1
    65   35   36 1
    66   35   62 1
    67   35   63 1
    68   36   37 1
    69   36   64 1
    70   36   65 1
@<TRIPOS>MOLECULE
ZINC03766007
   62    66     0     0     0
SMALL
USER_CHARGES

@<TRIPOS>ATOM
      1 C1          2.1231   -1.1877    1.0145 C.3       1 <0>        -0.1234
      2 C2          0.7617   -1.1242    0.3714 C.ar      1 <0>        -0.0723
      3 C3          0.5879   -1.5722   -0.9249 C.ar      1 <0>        -0.1133
      4 C4         -0.6607   -1.5139   -1.5147 C.ar      1 <0>        -0.1124
      5 C5         -1.7360   -1.0080   -0.8081 C.ar      1 <0>        -0.1204
      6 C6         -1.5625   -0.5610    0.4881 C.ar      1 <0>        -0.1155
      7 C7         -0.3144   -0.6232    1.0796 C.ar      1 <0>        -0.1131
      8 C8         -0.1263   -0.1407    2.4948 C.3       1 <0>         0.1503
      9 N1         -1.4304    0.1860    3.0768 N.am      1 <0>        -0.5861
     10 C9         -2.1425   -0.8084    3.8831 C.3       1 <0>         0.1242
     11 H1         -3.1314   -0.4280    4.1391 H         1 <0>         0.1337
     12 C10        -2.2861   -2.1051    3.0838 C.3       1 <0>        -0.1620
     13 C11        -1.3664   -1.0801    5.1460 C.2       1 <0>         0.5039
     14 O1         -0.3213   -0.5002    5.3522 O.2       1 <0>        -0.5019
     15 N2         -1.8337   -1.9676    6.0464 N.am      1 <0>        -0.6656
     16 C12        -1.1680   -2.1441    7.2664 C.ar      1 <0>         0.1576
     17 C13        -1.1534   -3.3919    7.8751 C.ar      1 <0>        -0.1339
     18 C14        -0.4969   -3.5676    9.0782 C.ar      1 <0>        -0.0789
     19 C15         0.1481   -2.4996    9.6808 C.ar      1 <0>         0.0174
     20 C16         0.1351   -1.2467    9.0726 C.ar      1 <0>         0.0557
     21 C17        -0.5183   -1.0729    7.8639 C.ar      1 <0>        -0.1051
     22 O2          0.8321   -0.3736    9.8570 O.3       1 <0>        -0.3054
     23 C18         0.9232   -1.0046   11.1480 C.3       1 <0>         0.2129
     24 O3          0.8539   -2.4109   10.8469 O.3       1 <0>        -0.3075
     25 C19        -1.9751    1.4014    2.8703 C.2       1 <0>         0.5063
     26 O4         -3.0104    1.7041    3.4248 O.2       1 <0>        -0.5156
     27 C20        -1.2977    2.3843    1.9505 C.3       1 <0>         0.0930
     28 N3         -2.0172    3.6600    1.9837 N.am      1 <0>        -0.5320
     29 C21        -3.0731    3.9875    1.1362 C.ar      1 <0>         0.2017
     30 C22        -3.6875    3.2726    0.1163 C.ar      1 <0>        -0.1486
     31 C23        -4.7360    3.8310   -0.5904 C.ar      1 <0>        -0.0409
     32 C24        -5.1884    5.1062   -0.2943 C.ar      1 <0>        -0.1549
     33 C25        -4.5924    5.8343    0.7151 C.ar      1 <0>        -0.0035
     34 C26        -3.5337    5.2802    1.4345 C.ar      1 <0>        -0.2349
     35 C27        -2.6999    5.7791    2.5438 C.2       1 <0>         0.3952
     36 O5         -2.7726    6.8562    3.0981 O.2       1 <0>        -0.3672
     37 C28        -1.7458    4.6603    2.8397 C.2       1 <0>         0.4956
     38 O6         -0.8849    4.6590    3.6943 O.2       1 <0>        -0.4399
     39 H2          2.2062   -2.1036    1.5996 H         1 <0>         0.0740
     40 H3          2.8910   -1.1798    0.2410 H         1 <0>         0.0704
     41 H4          2.2569   -0.3256    1.6680 H         1 <0>         0.0693
     42 H5          1.4279   -1.9674   -1.4769 H         1 <0>         0.1243
     43 H6         -0.7963   -1.8633   -2.5276 H         1 <0>         0.1231
     44 H7         -2.7116   -0.9619   -1.2692 H         1 <0>         0.1225
     45 H8         -2.4024   -0.1655    1.0399 H         1 <0>         0.1192
     46 H9          0.3493   -0.9237    3.0854 H         1 <0>         0.1051
     47 H10         0.5045    0.7482    2.4947 H         1 <0>         0.0952
     48 H11        -1.2982   -2.5202    2.8842 H         1 <0>         0.0707
     49 H12        -2.8725   -2.8227    3.6577 H         1 <0>         0.0771
     50 H13        -2.7899   -1.8963    2.1401 H         1 <0>         0.0822
     51 H14        -2.6308   -2.4841    5.8496 H         1 <0>         0.4156
     52 H15        -1.6559   -4.2259    7.4080 H         1 <0>         0.1430
     53 H16        -0.4868   -4.5392    9.5498 H         1 <0>         0.1421
     54 H17        -0.5258   -0.1032    7.3884 H         1 <0>         0.1471
     55 H18         1.8718   -0.7618   11.6269 H         1 <0>         0.1338
     56 H19         0.0866   -0.7065   11.7799 H         1 <0>         0.0863
     57 H20        -0.2693    2.5385    2.2773 H         1 <0>         0.1270
     58 H21        -1.3007    1.9918    0.9336 H         1 <0>         0.1281
     59 H22        -3.3449    2.2773   -0.1256 H         1 <0>         0.1314
     60 H23        -5.2071    3.2673   -1.3820 H         1 <0>         0.1396
     61 H24        -6.0083    5.5312   -0.8543 H         1 <0>         0.1395
     62 H25        -4.9444    6.8286    0.9473 H         1 <0>         0.1402
@<TRIPOS>BOND
     1    1    2 1
     2    1   39 1
     3    1   40 1
     4    1   41 1
     5    2    7 ar
     6    2    3 ar
     7    3    4 ar
     8    3   42 1
     9    4    5 ar
    10    4   43 1
    11    5    6 ar
    12    5   44 1
    13    6    7 ar
    14    6   45 1
    15    7    8 1
    16    8    9 1
    17    8   46 1
    18    8   47 1
    19    9   10 1
    20    9   25 am
    21   10   11 1
    22   10   12 1
    23   10   13 1
    24   12   48 1
    25   12   49 1
    26   12   50 1
    27   13   14 2
    28   13   15 am
    29   15   16 1
    30   15   51 1
    31   16   21 ar
    32   16   17 ar
    33   17   18 ar
    34   17   52 1
    35   18   19 ar
    36   18   53 1
    37   19   24 1
    38   19   20 ar
    39   20   21 ar
    40   20   22 1
    41   21   54 1
    42   22   23 1
    43   23   24 1
    44   23   55 1
    45   23   56 1
    46   25   26 2
    47   25   27 1
    48   27   28 1
    49   27   57 1
    50   27   58 1
    51   28   37 am
    52   28   29 1
    53   29   34 ar
    54   29   30 ar
    55   30   31 ar
    56   30   59 1
    57   31   32 ar
    58   31   60 1
    59   32   33 ar
    60   32   61 1
    61   33   34 ar
    62   33   62 1
    63   34   35 1
    64   35   36 2
    65   35   37 1
    66   37   38 2
@<TRIPOS>MOLECULE
ZINC56937237
   69    72     0     0     0
SMALL
USER_CHARGES

@<TRIPOS>ATOM
      1 C1          0.0448    1.4331    1.0321 C.3       1 <0>        -0.1530
      2 C2          0.0395   -0.0961    0.9841 C.3       1 <0>        -0.1215
      3 C3         -1.3662   -0.5906    0.6374 C.3       1 <0>        -0.1205
      4 C4         -1.3715   -2.1199    0.5894 C.3       1 <0>         0.0589
      5 O1         -2.6845   -2.5817    0.2656 O.3       1 <0>        -0.3162
      6 C5         -2.8626   -3.9272    0.1825 C.ar      1 <0>         0.1108
      7 C6         -1.7959   -4.7833    0.4139 C.ar      1 <0>        -0.1877
      8 C7         -1.9761   -6.1499    0.3296 C.ar      1 <0>        -0.1139
      9 C8         -3.2253   -6.6669    0.0137 C.ar      1 <0>         0.1256
     10 C9         -4.2925   -5.8095   -0.2174 C.ar      1 <0>        -0.0997
     11 C10        -4.1122   -4.4433   -0.1280 C.ar      1 <0>        -0.1307
     12 N1         -3.4087   -8.0536   -0.0725 N.am      1 <0>        -0.6805
     13 C11        -4.6366   -8.5828    0.0968 C.2       1 <0>         0.7091
     14 O2         -5.6084   -7.8549    0.1635 O.2       1 <0>        -0.5694
     15 N2         -4.7875   -9.9187    0.1922 N.am      1 <0>        -0.6203
     16 C12        -3.6148  -10.7981    0.2987 C.3       1 <0>         0.0923
     17 C13        -3.7632  -11.6625    1.5569 C.3       1 <0>         0.1354
     18 N3         -5.1033  -12.2659    1.5567 N.pl3     1 <0>        -0.6381
     19 C14        -6.2760  -11.3864    1.4502 C.3       1 <0>         0.1337
     20 C15        -6.1278  -10.5216    0.1977 C.3       1 <0>         0.1127
     21 C16        -5.2609  -13.6614    1.6564 C.2       1 <0>         0.0255
     22 C17        -5.3088  -14.5654    0.5855 C.2       1 <0>         0.0771
     23 N4         -5.4632  -15.7711    1.0703 N.2       1 <0>        -0.2869
     24 N5         -5.5194  -15.6812    2.4670 N.pl3     1 <0>        -0.3667
     25 C18        -5.3875  -14.3711    2.8062 C.2       1 <0>         0.0811
     26 C19        -5.3849  -13.8090    4.2045 C.3       1 <0>        -0.0906
     27 C20        -5.6862  -16.8005    3.3974 C.3       1 <0>         0.1669
     28 H1         -5.6820  -16.4306    4.4227 H         1 <0>         0.1240
     29 C21        -4.5428  -17.8105    3.2050 C.3       1 <0>        -0.1365
     30 C22        -4.8757  -19.1309    3.9406 C.3       1 <0>        -0.5747
     31 S1         -6.7146  -19.1527    3.9190 S.o2      1 <0>         2.3772
     32 O3         -7.1545  -20.1933    3.0570 O.2       1 <0>        -0.9251
     33 O4         -7.1933  -19.1031    5.2560 O.2       1 <0>        -0.9270
     34 C23        -7.0294  -17.5291    3.1073 C.3       1 <0>        -0.5933
     35 C24        -5.2009  -14.2091   -0.8748 C.3       1 <0>        -0.0693
     36 H2          1.0463    1.7854    1.2790 H         1 <0>         0.0573
     37 H3         -0.2498    1.8282    0.0598 H         1 <0>         0.0562
     38 H4         -0.6582    1.7752    1.7915 H         1 <0>         0.0562
     39 H5          0.7426   -0.4382    0.2246 H         1 <0>         0.0646
     40 H6          0.3342   -0.4912    1.9563 H         1 <0>         0.0645
     41 H7         -2.0693   -0.2485    1.3968 H         1 <0>         0.0741
     42 H8         -1.6609   -0.1956   -0.3348 H         1 <0>         0.0741
     43 H9         -0.6684   -2.4620   -0.1700 H         1 <0>         0.0611
     44 H10        -1.0769   -2.5149    1.5616 H         1 <0>         0.0609
     45 H11        -0.8242   -4.3810    0.6596 H         1 <0>         0.1300
     46 H12        -1.1454   -6.8163    0.5091 H         1 <0>         0.1256
     47 H13        -5.2645   -6.2110   -0.4631 H         1 <0>         0.1699
     48 H14        -4.9433   -3.7763   -0.3037 H         1 <0>         0.1333
     49 H15        -2.6519   -8.6326   -0.2539 H         1 <0>         0.4054
     50 H16        -3.5572  -11.4392   -0.5809 H         1 <0>         0.0758
     51 H17        -2.7105  -10.1943    0.3743 H         1 <0>         0.0795
     52 H18        -3.0082  -12.4486    1.5518 H         1 <0>         0.0807
     53 H19        -3.6419  -11.0411    2.4441 H         1 <0>         0.0546
     54 H20        -7.1804  -11.9902    1.3746 H         1 <0>         0.0813
     55 H21        -6.3336  -10.7453    2.3298 H         1 <0>         0.0558
     56 H22        -6.8826   -9.7352    0.2065 H         1 <0>         0.1007
     57 H23        -6.2532  -11.1425   -0.6893 H         1 <0>         0.0693
     58 H24        -6.4049  -13.5618    4.4986 H         1 <0>         0.0812
     59 H25        -4.9776  -14.5495    4.8929 H         1 <0>         0.0685
     60 H26        -4.7702  -12.9093    4.2332 H         1 <0>         0.0875
     61 H27        -4.4127  -18.0116    2.1416 H         1 <0>         0.1038
     62 H28        -3.6201  -17.3939    3.6089 H         1 <0>         0.1018
     63 H29        -4.4727  -19.9870    3.3996 H         1 <0>         0.1494
     64 H30        -4.5015  -19.1081    4.9641 H         1 <0>         0.1447
     65 H31        -7.8675  -17.0113    3.5739 H         1 <0>         0.1474
     66 H32        -7.1897  -17.6484    2.0358 H         1 <0>         0.1539
     67 H33        -4.1544  -14.2345   -1.1786 H         1 <0>         0.0745
     68 H34        -5.7686  -14.9270   -1.4668 H         1 <0>         0.0715
     69 H35        -5.6017  -13.2083   -1.0352 H         1 <0>         0.0761
@<TRIPOS>BOND
     1    1    2 1
     2    1   36 1
     3    1   37 1
     4    1   38 1
     5    2    3 1
     6    2   39 1
     7    2   40 1
     8    3    4 1
     9    3   41 1
    10    3   42 1
    11    4    5 1
    12    4   43 1
    13    4   44 1
    14    5    6 1
    15    6   11 ar
    16    6    7 ar
    17    7    8 ar
    18    7   45 1
    19    8    9 ar
    20    8   46 1
    21    9   10 ar
    22    9   12 1
    23   10   11 ar
    24   10   47 1
    25   11   48 1
    26   12   13 am
    27   12   49 1
    28   13   14 2
    29   13   15 am
    30   15   20 1
    31   15   16 1
    32   16   17 1
    33   16   50 1
    34   16   51 1
    35   17   18 1
    36   17   52 1
    37   17   53 1
    38   18   19 1
    39   18   21 1
    40   19   20 1
    41   19   54 1
    42   19   55 1
    43   20   56 1
    44   20   57 1
    45   21   25 2
    46   21   22 1
    47   22   23 2
    48   22   35 1
    49   23   24 1
    50   24   25 1
    51   24   27 1
    52   25   26 1
    53   26   58 1
    54   26   59 1
    55   26   60 1
    56   27   28 1
    57   27   34 1
    58   27   29 1
    59   29   30 1
    60   29   61 1
    61   29   62 1
    62   30   31 1
    63   30   63 1
    64   30   64 1
    65   31   32 2
    66   31   33 2
    67   31   34 1
    68   34   65 1
    69   34   66 1
    70   35   67 1
    71   35   68 1
    72   35   69 1
@<TRIPOS>MOLECULE
ZINC08454255
   48    50     0     0     0
SMALL
USER_CHARGES
5-[(4-bromopyrazol-1-yl)methyl]-N-[(3,4,5-trimethoxyphenyl)methyleneamino]furan-2-carboxamide
@<TRIPOS>ATOM
      1 C1         -2.3368    9.4157    8.2298 C.3       1 <0>         0.0212
      2 O1         -2.6402    8.9099    6.9282 O.3       1 <0>        -0.2984
      3 C2         -1.7186    8.0915    6.3535 C.ar      1 <0>         0.1547
      4 C3         -0.5511    7.7841    7.0285 C.ar      1 <0>        -0.1998
      5 C4          0.3955    6.9436    6.4373 C.ar      1 <0>        -0.0326
      6 C5          0.1619    6.4206    5.1629 C.ar      1 <0>        -0.2514
      7 C6         -1.0100    6.7274    4.4951 C.ar      1 <0>         0.1584
      8 C7         -1.9509    7.5644    5.0868 C.ar      1 <0>         0.0453
      9 O2         -3.1001    7.8685    4.4254 O.3       1 <0>        -0.3100
     10 C8         -3.0787    9.0240    3.5851 C.3       1 <0>         0.0355
     11 O3         -1.2406    6.2142    3.2570 O.3       1 <0>        -0.2915
     12 C9         -0.2323    5.3622    2.7097 C.3       1 <0>         0.0256
     13 C10         1.6408    6.6141    7.1540 C.2       1 <0>         0.1209
     14 N1          2.6291    6.0626    6.5182 N.2       1 <0>        -0.2158
     15 N2          2.7227    6.1866    5.1259 N.am      1 <0>        -0.5807
     16 C11         3.6766    5.5139    4.4520 C.2       1 <0>         0.6160
     17 O4          4.4568    4.7985    5.0532 O.2       1 <0>        -0.4716
     18 C12         3.7745    5.6437    2.9950 C.2       1 <0>        -0.0710
     19 C13         4.6887    5.0213    2.1934 C.2       1 <0>        -0.1034
     20 C14         4.4162    5.4295    0.8784 C.2       1 <0>        -0.1651
     21 C15         3.3614    6.2722    0.9339 C.2       1 <0>        -0.0099
     22 O5          2.9812    6.4033    2.2117 O.3       1 <0>        -0.1642
     23 C16         2.7221    6.9570   -0.2465 C.3       1 <0>         0.2157
     24 N3          1.6532    6.1103   -0.7822 N.pl3     1 <0>        -0.3710
     25 C17         0.3664    6.4761   -0.9649 C.2       1 <0>         0.0981
     26 C18        -0.2944    5.4143   -1.4827 C.2       1 <0>        -0.2390
     27 C19         0.6176    4.3611   -1.6118 C.2       1 <0>         0.0827
     28 N4          1.7858    4.7785   -1.1956 N.2       1 <0>        -0.2717
     29 Br1        -2.1273    5.3619   -1.9450 Br        1 <0>        -0.0125
     30 H1         -2.2114    8.5837    8.9227 H         1 <0>         0.0617
     31 H2         -1.4151    9.9960    8.1883 H         1 <0>         0.0597
     32 H3         -3.1524   10.0531    8.5712 H         1 <0>         0.1065
     33 H4         -0.3715    8.1933    8.0118 H         1 <0>         0.1476
     34 H5          0.8937    5.7741    4.7015 H         1 <0>         0.1449
     35 H6         -2.3207    8.8971    2.8121 H         1 <0>         0.0448
     36 H7         -4.0554    9.1522    3.1186 H         1 <0>         0.0961
     37 H8         -2.8435    9.9042    4.1835 H         1 <0>         0.0459
     38 H9          0.7044    5.9137    2.6284 H         1 <0>         0.0529
     39 H10        -0.0912    4.5006    3.3623 H         1 <0>         0.0566
     40 H11        -0.5410    5.0225    1.7211 H         1 <0>         0.1063
     41 H12         1.7308    6.8314    8.2081 H         1 <0>         0.1970
     42 H13         2.1011    6.7567    4.6469 H         1 <0>         0.4002
     43 H14         5.4699    4.3463    2.5101 H         1 <0>         0.1693
     44 H15         4.9496    5.1271   -0.0107 H         1 <0>         0.1659
     45 H16         3.4726    7.1264   -1.0186 H         1 <0>         0.1294
     46 H17         2.3044    7.9127    0.0702 H         1 <0>         0.1216
     47 H18        -0.0584    7.4438   -0.7423 H         1 <0>         0.1854
     48 H19         0.3966    3.3753   -1.9935 H         1 <0>         0.1937
@<TRIPOS>BOND
     1    1    2 1
     2    1   30 1
     3    1   31 1
     4    1   32 1
     5    2    3 1
     6    3    8 ar
     7    3    4 ar
     8    4    5 ar
     9    4   33 1
    10    5    6 ar
    11    5   13 1
    12    6    7 ar
    13    6   34 1
    14    7    8 ar
    15    7   11 1
    16    8    9 1
    17    9   10 1
    18   10   35 1
    19   10   36 1
    20   10   37 1
    21   11   12 1
    22   12   38 1
    23   12   39 1
    24   12   40 1
    25   13   14 2
    26   13   41 1
    27   14   15 1
    28   15   16 am
    29   15   42 1
    30   16   17 2
    31   16   18 1
    32   18   22 1
    33   18   19 2
    34   19   20 1
    35   19   43 1
    36   20   21 2
    37   20   44 1
    38   21   22 1
    39   21   23 1
    40   23   24 1
    41   23   45 1
    42   23   46 1
    43   24   28 1
    44   24   25 1
    45   25   26 2
    46   25   47 1
    47   26   27 1
    48   26   29 1
    49   27   28 2
    50   27   48 1
@<TRIPOS>MOLECULE
ZINC18094475
   61    64     0     0     0
SMALL
USER_CHARGES
2-butyl-N-[2-(2,3-dihydro-1,4-benzodioxin-6-ylamino)-2-oxo-ethyl]-N-ethyl-1,3-dioxo-isoindoline-5-carboxamide
@<TRIPOS>ATOM
      1 C1          6.1740   -2.5178   11.4313 C.3       1 <0>        -0.1529
      2 C2          4.8023   -2.5512   10.7544 C.3       1 <0>        -0.1208
      3 C3          4.9835   -2.6796    9.2406 C.3       1 <0>        -0.1378
      4 C4          3.6118   -2.7130    8.5638 C.3       1 <0>         0.1091
      5 N1          3.7853   -2.8359    7.1143 N.am      1 <0>        -0.5744
      6 C5          3.8942   -1.7945    6.2700 C.2       1 <0>         0.5737
      7 O1          3.8639   -0.6217    6.5833 O.2       1 <0>        -0.4520
      8 C6          4.0565   -2.3180    4.8948 C.ar      1 <0>        -0.1142
      9 C7          4.2106   -1.7282    3.6501 C.ar      1 <0>        -0.0461
     10 C8          4.3458   -2.5206    2.5229 C.ar      1 <0>        -0.0883
     11 C9          4.3178   -3.9107    2.6324 C.ar      1 <0>        -0.1060
     12 C10         4.1632   -4.5134    3.8839 C.ar      1 <0>         0.0119
     13 C11         4.0328   -3.7227    5.0127 C.ar      1 <0>        -0.1399
     14 C12         3.8572   -4.0050    6.4531 C.2       1 <0>         0.5758
     15 O2          3.7885   -5.1086    6.9556 O.2       1 <0>        -0.4502
     16 C13         4.4583   -4.7497    1.4211 C.2       1 <0>         0.5640
     17 O3          3.9674   -5.8610    1.3914 O.2       1 <0>        -0.5074
     18 N2          5.1306   -4.2811    0.3511 N.am      1 <0>        -0.5851
     19 C14         5.2147   -5.0851   -0.8707 C.3       1 <0>         0.1130
     20 C15         6.5136   -5.8936   -0.8608 C.3       1 <0>        -0.1696
     21 C16         5.7772   -2.9679    0.4098 C.3       1 <0>         0.0592
     22 C17         4.9868   -1.9816   -0.4110 C.2       1 <0>         0.4856
     23 O4          3.9821   -2.3404   -0.9881 O.2       1 <0>        -0.4928
     24 N3          5.3962   -0.7009   -0.5036 N.am      1 <0>        -0.6665
     25 C18         4.6037    0.2413   -1.1722 C.ar      1 <0>         0.1477
     26 C19         3.2231    0.0957   -1.1963 C.ar      1 <0>        -0.1172
     27 C20         2.4414    1.0236   -1.8565 C.ar      1 <0>        -0.0911
     28 C21         3.0321    2.1033   -2.4965 C.ar      1 <0>         0.0388
     29 C22         4.4136    2.2535   -2.4713 C.ar      1 <0>         0.0718
     30 C23         5.1980    1.3206   -1.8103 C.ar      1 <0>        -0.1392
     31 O5          5.0106    3.3109   -3.0862 O.3       1 <0>        -0.3060
     32 C24         4.2279    4.0193   -4.0533 C.3       1 <0>         0.0207
     33 C25         2.8375    4.2715   -3.4549 C.3       1 <0>         0.0197
     34 O6          2.2456    3.0035   -3.1493 O.3       1 <0>        -0.3059
     35 H1          6.0449   -2.4264   12.5097 H         1 <0>         0.0580
     36 H2          6.7125   -3.4385   11.2066 H         1 <0>         0.0550
     37 H3          6.7418   -1.6648   11.0597 H         1 <0>         0.0548
     38 H4          4.2637   -1.6306   10.9791 H         1 <0>         0.0669
     39 H5          4.2344   -3.4042   11.1260 H         1 <0>         0.0672
     40 H6          5.5220   -3.6003    9.0160 H         1 <0>         0.0706
     41 H7          5.5513   -1.8266    8.8690 H         1 <0>         0.0702
     42 H8          3.0732   -1.7923    8.7884 H         1 <0>         0.0994
     43 H9          3.0439   -3.5660    8.9354 H         1 <0>         0.0997
     44 H10         4.2287   -0.6521    3.5601 H         1 <0>         0.1533
     45 H11         4.4696   -2.0602    1.5539 H         1 <0>         0.1498
     46 H12         4.1452   -5.5899    3.9698 H         1 <0>         0.1572
     47 H13         4.3639   -5.7648   -0.9177 H         1 <0>         0.0937
     48 H14         5.2027   -4.4274   -1.7399 H         1 <0>         0.0830
     49 H15         6.5761   -6.4917   -1.7699 H         1 <0>         0.0718
     50 H16         7.3643   -5.2138   -0.8139 H         1 <0>         0.0557
     51 H17         6.5256   -6.5512    0.0084 H         1 <0>         0.0619
     52 H18         6.7892   -3.0431    0.0119 H         1 <0>         0.1174
     53 H19         5.8180   -2.6289    1.4449 H         1 <0>         0.1374
     54 H20         6.2396   -0.4315   -0.1074 H         1 <0>         0.4152
     55 H21         2.7601   -0.7437   -0.6988 H         1 <0>         0.1469
     56 H22         1.3678    0.9080   -1.8748 H         1 <0>         0.1403
     57 H23         6.2718    1.4342   -1.7920 H         1 <0>         0.1396
     58 H24         4.7056    4.9708   -4.2870 H         1 <0>         0.1246
     59 H25         4.1356    3.4219   -4.9603 H         1 <0>         0.0795
     60 H26         2.9309    4.8640   -2.5448 H         1 <0>         0.0792
     61 H27         2.2169    4.8017   -4.1773 H         1 <0>         0.1240
@<TRIPOS>BOND
     1    1    2 1
     2    1   35 1
     3    1   36 1
     4    1   37 1
     5    2    3 1
     6    2   38 1
     7    2   39 1
     8    3    4 1
     9    3   40 1
    10    3   41 1
    11    4    5 1
    12    4   42 1
    13    4   43 1
    14    5   14 am
    15    5    6 am
    16    6    7 2
    17    6    8 1
    18    8   13 ar
    19    8    9 ar
    20    9   10 ar
    21    9   44 1
    22   10   11 ar
    23   10   45 1
    24   11   12 ar
    25   11   16 1
    26   12   13 ar
    27   12   46 1
    28   13   14 1
    29   14   15 2
    30   16   17 2
    31   16   18 am
    32   18   19 1
    33   18   21 1
    34   19   20 1
    35   19   47 1
    36   19   48 1
    37   20   49 1
    38   20   50 1
    39   20   51 1
    40   21   22 1
    41   21   52 1
    42   21   53 1
    43   22   23 2
    44   22   24 am
    45   24   25 1
    46   24   54 1
    47   25   30 ar
    48   25   26 ar
    49   26   27 ar
    50   26   55 1
    51   27   28 ar
    52   27   56 1
    53   28   34 1
    54   28   29 ar
    55   29   30 ar
    56   29   31 1
    57   30   57 1
    58   31   32 1
    59   32   33 1
    60   32   58 1
    61   32   59 1
    62   33   34 1
    63   33   60 1
    64   33   61 1
@<TRIPOS>MOLECULE
ZINC24091889
   58    62     0     0     0
SMALL
USER_CHARGES
[2-[(5R)-5-(2-furyl)-3-(p-tolyl)-4,5-dihydropyrazol-1-yl]-2-oxo-ethyl] 2-[(2S)-3-oxo-4H-1,4-benzoxazin-2-yl]acetate
@<TRIPOS>ATOM
      1 C1         -4.6497   -3.3862    0.0272 C.3       1 <0>        -0.1241
      2 C2         -3.4309   -2.5000    0.0202 C.ar      1 <0>        -0.0620
      3 C3         -3.5797   -1.1244    0.0294 C.ar      1 <0>        -0.1237
      4 C4         -2.4685   -0.3071    0.0236 C.ar      1 <0>        -0.0715
      5 C5         -1.1908   -0.8714    0.0083 C.ar      1 <0>        -0.0484
      6 C6         -1.0482   -2.2608   -0.0068 C.ar      1 <0>        -0.0812
      7 C7         -2.1682   -3.0659    0.0051 C.ar      1 <0>        -0.1239
      8 C8          0.0021   -0.0041    0.0020 C.2       1 <0>         0.1556
      9 N1         -0.0154    1.2838    0.0091 N.2       1 <0>        -0.2430
     10 N2          1.2484    1.8705    0.0002 N.am      1 <0>        -0.4636
     11 C9          2.2662    0.8077   -0.0152 C.3       1 <0>         0.1994
     12 H1          2.9444    0.9169   -0.8743 H         1 <0>         0.1296
     13 C10         1.4338   -0.4898   -0.0143 C.3       1 <0>        -0.1270
     14 C11         3.1312    0.8838    1.2164 C.2       1 <0>        -0.0335
     15 C12         4.4397    0.5782    1.2788 C.2       1 <0>        -0.1838
     16 C13         4.8473    0.7936    2.6154 C.2       1 <0>        -0.2117
     17 C14         3.7616    1.2100    3.2916 C.2       1 <0>        -0.0315
     18 O1          2.7251    1.2628    2.4392 O.3       1 <0>        -0.1695
     19 C15         1.4980    3.1949    0.0042 C.2       1 <0>         0.5592
     20 O2          2.6426    3.5965   -0.0049 O.2       1 <0>        -0.4871
     21 C16         0.3550    4.1770    0.0201 C.3       1 <0>         0.0628
     22 O3          0.8801    5.5307    0.0216 O.3       1 <0>        -0.3361
     23 C17        -0.0146    6.5313    0.0352 C.2       1 <0>         0.4722
     24 O4         -1.1973    6.2842    0.0455 O.2       1 <0>        -0.4834
     25 C18         0.4561    7.9629    0.0376 C.3       1 <0>        -0.1390
     26 C19        -0.7549    8.8979    0.0540 C.3       1 <0>         0.0929
     27 H2         -1.4507    8.6508    0.8693 H         1 <0>         0.1617
     28 C20        -0.2853   10.3251    0.1803 C.2       1 <0>         0.5009
     29 O5         -0.1913   10.8406    1.2742 O.2       1 <0>        -0.5012
     30 N3          0.0297   11.0268   -0.9286 N.am      1 <0>        -0.6684
     31 C21        -0.2062   10.4581   -2.1877 C.ar      1 <0>         0.0963
     32 C22         0.3070   11.0451   -3.3332 C.ar      1 <0>        -0.1239
     33 C23         0.0764   10.4643   -4.5666 C.ar      1 <0>        -0.1084
     34 C24        -0.6633    9.2998   -4.6595 C.ar      1 <0>        -0.1107
     35 C25        -1.1825    8.7118   -3.5205 C.ar      1 <0>        -0.1048
     36 C26        -0.9614    9.2912   -2.2827 C.ar      1 <0>         0.0659
     37 O6         -1.4940    8.7401   -1.1591 O.3       1 <0>        -0.2841
     38 H3         -5.5561   -2.7630    0.0392 H         1 <0>         0.0688
     39 H4         -4.6327   -4.0260    0.9219 H         1 <0>         0.0744
     40 H5         -4.6499   -4.0165   -0.8743 H         1 <0>         0.0745
     41 H6         -4.5682   -0.6895    0.0416 H         1 <0>         0.1296
     42 H7         -2.5862    0.7664    0.0304 H         1 <0>         0.1340
     43 H8         -0.0634   -2.7038   -0.0235 H         1 <0>         0.1299
     44 H9         -2.0595   -4.1403   -0.0021 H         1 <0>         0.1299
     45 H10         1.6230   -1.1035    0.8788 H         1 <0>         0.1156
     46 H11         1.6059   -1.0938   -0.9174 H         1 <0>         0.1201
     47 H12         5.0603    0.2363    0.4638 H         1 <0>         0.1510
     48 H13         5.8391    0.6481    3.0172 H         1 <0>         0.1518
     49 H14         3.7288    1.4592    4.3420 H         1 <0>         0.2040
     50 H15        -0.2697    4.0270   -0.8728 H         1 <0>         0.1127
     51 H16        -0.2523    4.0183    0.9234 H         1 <0>         0.1120
     52 H17         1.0720    8.1449    0.9307 H         1 <0>         0.1345
     53 H18         1.0545    8.1537   -0.8655 H         1 <0>         0.1202
     54 H19         0.4660   12.0324   -0.8376 H         1 <0>         0.4448
     55 H20         0.8855   11.9544   -3.2628 H         1 <0>         0.1344
     56 H21         0.4753   10.9215   -5.4600 H         1 <0>         0.1332
     57 H22        -0.8366    8.8480   -5.6250 H         1 <0>         0.1348
     58 H23        -1.7593    7.8018   -3.5964 H         1 <0>         0.1388
@<TRIPOS>BOND
     1    1    2 1
     2    1   38 1
     3    1   39 1
     4    1   40 1
     5    2    7 ar
     6    2    3 ar
     7    3    4 ar
     8    3   41 1
     9    4    5 ar
    10    4   42 1
    11    5    6 ar
    12    5    8 1
    13    6    7 ar
    14    6   43 1
    15    7   44 1
    16    8   13 1
    17    8    9 2
    18    9   10 1
    19   10   11 1
    20   10   19 am
    21   11   12 1
    22   11   13 1
    23   11   14 1
    24   13   45 1
    25   13   46 1
    26   14   18 1
    27   14   15 2
    28   15   16 1
    29   15   47 1
    30   16   17 2
    31   16   48 1
    32   17   18 1
    33   17   49 1
    34   19   20 2
    35   19   21 1
    36   21   22 1
    37   21   50 1
    38   21   51 1
    39   22   23 1
    40   23   24 2
    41   23   25 1
    42   25   26 1
    43   25   52 1
    44   25   53 1
    45   26   27 1
    46   26   37 1
    47   26   28 1
    48   28   29 2
    49   28   30 am
    50   30   31 1
    51   30   54 1
    52   31   36 ar
    53   31   32 ar
    54   32   33 ar
    55   32   55 1
    56   33   34 ar
    57   33   56 1
    58   34   35 ar
    59   34   57 1
    60   35   36 ar
    61   35   58 1
    62   36   37 1
@<TRIPOS>MOLECULE
ZINC12465929
   56    59     0     0     0
SMALL
USER_CHARGES

@<TRIPOS>ATOM
      1 C1         -0.0187    1.5258    0.0104 C.3       1 <0>        -0.1470
      2 C2          0.0021   -0.0041    0.0020 C.3       1 <0>         0.0747
      3 H1          0.5121   -0.3563   -0.8946 H         1 <0>         0.0628
      4 C3         -1.4357   -0.5357    0.0154 C.3       1 <0>         0.0894
      5 N1         -1.3891   -1.9954    0.1960 N.pl3     1 <0>        -0.9996
      6 C4         -0.5783   -2.5300    1.3016 C.3       1 <0>         0.0888
      7 C5          0.8176   -1.9012    1.2255 C.3       1 <0>         0.0752
      8 H2          1.3309   -2.2611    0.3338 H         1 <0>         0.0622
      9 O1          0.6913   -0.4787    1.1611 O.3       1 <0>        -0.3681
     10 C6          1.6209   -2.2882    2.4688 C.3       1 <0>        -0.1472
     11 S1         -2.2247   -3.0065   -0.8147 S.o2      1 <0>         2.6901
     12 O2         -2.4435   -4.2114   -0.0939 O.2       1 <0>        -0.9433
     13 O3         -3.2902   -2.2428   -1.3632 O.2       1 <0>        -0.9441
     14 C7         -1.1519   -3.4082   -2.1535 C.ar      1 <0>        -0.6916
     15 C8         -1.1351   -2.6144   -3.2869 C.ar      1 <0>         0.0158
     16 C9         -0.2958   -2.9225   -4.3426 C.ar      1 <0>        -0.1454
     17 C10         0.5305   -4.0251   -4.2720 C.ar      1 <0>        -0.0066
     18 C11         0.5187   -4.8302   -3.1315 C.ar      1 <0>        -0.1450
     19 C12        -0.3266   -4.5099   -2.0671 C.ar      1 <0>         0.0447
     20 C13         1.4008   -6.0124   -3.0487 C.2       1 <0>         0.5168
     21 O4          1.3883   -6.7110   -2.0552 O.2       1 <0>        -0.4895
     22 O5          2.2189   -6.3155   -4.0751 O.3       1 <0>        -0.3442
     23 C14         3.0443   -7.4725   -3.9269 C.3       1 <0>         0.1011
     24 C15         3.8848   -7.6519   -5.1648 C.2       1 <0>         0.0179
     25 C16         3.7938   -6.7798   -6.2023 C.2       1 <0>        -0.2243
     26 C17         4.5913   -6.9689   -7.3497 C.2       1 <0>         0.5107
     27 O6          4.5000   -6.1793   -8.2725 O.2       1 <0>        -0.4533
     28 O7          5.4488   -7.9966   -7.4508 O.3       1 <0>        -0.2689
     29 C18         5.5877   -8.8991   -6.4561 C.ar      1 <0>         0.1707
     30 C19         4.8263   -8.7677   -5.2795 C.ar      1 <0>        -0.1583
     31 C20         4.9709   -9.6979   -4.2442 C.ar      1 <0>        -0.0420
     32 C21         5.8555  -10.7289   -4.3774 C.ar      1 <0>        -0.1609
     33 C22         6.6157  -10.8611   -5.5375 C.ar      1 <0>         0.1714
     34 C23         6.4776   -9.9552   -6.5768 C.ar      1 <0>        -0.1631
     35 O8          7.4915  -11.8916   -5.6545 O.3       1 <0>        -0.4898
     36 H3          1.0039    1.9031    0.0027 H         1 <0>         0.0694
     37 H4         -0.5459    1.8868   -0.8726 H         1 <0>         0.0761
     38 H5         -0.5289    1.8773    0.9072 H         1 <0>         0.0689
     39 H6         -1.9874   -0.0814    0.8384 H         1 <0>         0.0888
     40 H7         -1.9238   -0.2981   -0.9298 H         1 <0>         0.1003
     41 H8         -1.0437   -2.2765    2.2541 H         1 <0>         0.0892
     42 H9         -0.4987   -3.6131    1.2081 H         1 <0>         0.1007
     43 H10         1.7137   -3.3731    2.5183 H         1 <0>         0.0763
     44 H11         2.6133   -1.8407    2.4140 H         1 <0>         0.0693
     45 H12         1.1079   -1.9264    3.3599 H         1 <0>         0.0692
     46 H13        -1.7805   -1.7505   -3.3477 H         1 <0>         0.1496
     47 H14        -0.2877   -2.2988   -5.2243 H         1 <0>         0.1483
     48 H15         1.1847   -4.2649   -5.0971 H         1 <0>         0.1498
     49 H16        -0.3374   -5.1261   -1.1802 H         1 <0>         0.1559
     50 H17         3.6947   -7.3465   -3.0613 H         1 <0>         0.1042
     51 H18         2.4157   -8.3514   -3.7841 H         1 <0>         0.1043
     52 H19         3.1121   -5.9439   -6.1487 H         1 <0>         0.1722
     53 H20         4.3845   -9.6003   -3.3425 H         1 <0>         0.1447
     54 H21         5.9672  -11.4465   -3.5781 H         1 <0>         0.1456
     55 H22         7.0702  -10.0646   -7.4731 H         1 <0>         0.1539
     56 H23         7.1106  -12.6888   -6.0475 H         1 <0>         0.4035
@<TRIPOS>BOND
     1    1    2 1
     2    1   36 1
     3    1   37 1
     4    1   38 1
     5    2    3 1
     6    2    9 1
     7    2    4 1
     8    4    5 1
     9    4   39 1
    10    4   40 1
    11    5    6 1
    12    5   11 1
    13    6    7 1
    14    6   41 1
    15    6   42 1
    16    7    8 1
    17    7    9 1
    18    7   10 1
    19   10   43 1
    20   10   44 1
    21   10   45 1
    22   11   12 2
    23   11   13 2
    24   11   14 1
    25   14   19 ar
    26   14   15 ar
    27   15   16 ar
    28   15   46 1
    29   16   17 ar
    30   16   47 1
    31   17   18 ar
    32   17   48 1
    33   18   19 ar
    34   18   20 1
    35   19   49 1
    36   20   21 2
    37   20   22 1
    38   22   23 1
    39   23   24 1
    40   23   50 1
    41   23   51 1
    42   24   30 1
    43   24   25 2
    44   25   26 1
    45   25   52 1
    46   26   27 2
    47   26   28 1
    48   28   29 1
    49   29   34 ar
    50   29   30 ar
    51   30   31 ar
    52   31   32 ar
    53   31   53 1
    54   32   33 ar
    55   32   54 1
    56   33   34 ar
    57   33   35 1
    58   34   55 1
    59   35   56 1
@<TRIPOS>MOLECULE
ZINC32975708
   60    64     0     0     0
SMALL
USER_CHARGES

@<TRIPOS>ATOM
      1 C1         -0.0173    1.4248    0.0099 C.3       1 <0>         0.0208
      2 O1          0.0021   -0.0041    0.0020 O.3       1 <0>        -0.3104
      3 C2         -1.2003   -0.6375    0.0101 C.ar      1 <0>         0.2301
      4 C3         -2.3748    0.1012    0.0195 C.ar      1 <0>        -0.2256
      5 C4         -3.5956   -0.5449    0.0272 C.ar      1 <0>         0.0012
      6 C5         -3.6478   -1.9268    0.0256 C.ar      1 <0>        -0.1738
      7 C6         -2.4790   -2.6650    0.0167 C.ar      1 <0>         0.0342
      8 C7         -1.2554   -2.0235    0.0032 C.ar      1 <0>        -0.7106
      9 S1          0.2338   -2.9651   -0.0155 S.o2      1 <0>         2.7011
     10 O2          1.0652   -2.4304    1.0053 O.2       1 <0>        -0.9421
     11 O3         -0.1508   -4.3327   -0.0464 O.2       1 <0>        -0.9557
     12 N1          0.9917   -2.6540   -1.4546 N.pl3     1 <0>        -1.1120
     13 C8          1.4900   -1.3070   -1.7439 C.3       1 <0>         0.1699
     14 C9          2.4402   -1.3631   -2.9122 C.ar      1 <0>        -0.0940
     15 C10         3.7895   -1.5713   -2.6945 C.ar      1 <0>        -0.0870
     16 C11         4.6650   -1.6240   -3.7630 C.ar      1 <0>        -0.1004
     17 C12         4.1916   -1.4676   -5.0557 C.ar      1 <0>         0.0399
     18 C13         2.8324   -1.2578   -5.2750 C.ar      1 <0>         0.0297
     19 C14         1.9600   -1.2119   -4.1997 C.ar      1 <0>        -0.0844
     20 O4          2.6210   -1.1355   -6.6180 O.3       1 <0>        -0.3081
     21 C15         3.9153   -0.8646   -7.1878 C.3       1 <0>         0.2130
     22 O5          4.8318   -1.4768   -6.2612 O.3       1 <0>        -0.3074
     23 C16        -4.9811   -2.6292    0.0340 C.3       1 <0>         0.1447
     24 N2         -5.4229   -2.8548   -1.3444 N.am      1 <0>        -0.5909
     25 C17        -6.1733   -1.9610   -2.0437 C.2       1 <0>         0.5435
     26 O6         -6.3992   -0.8076   -1.7465 O.2       1 <0>        -0.4667
     27 C18        -6.6629   -2.6911   -3.2541 C.3       1 <0>        -0.1318
     28 H1         -7.5706   -3.2443   -3.0130 H         1 <0>         0.1247
     29 C19        -6.8477   -1.9370   -4.5529 C.3       1 <0>        -0.0968
     30 C20        -7.3143   -2.9771   -5.5911 C.3       1 <0>        -0.1213
     31 C21        -6.3198   -4.1242   -5.7326 C.3       1 <0>        -0.1203
     32 C22        -5.9828   -4.7700   -4.3760 C.3       1 <0>        -0.0981
     33 C23        -5.4785   -3.6794   -3.4716 C.3       1 <0>        -0.1325
     34 H2         -4.6529   -3.1655   -3.9640 H         1 <0>         0.1210
     35 C24        -5.1181   -3.9761   -2.0522 C.2       1 <0>         0.5417
     36 O7         -4.6513   -5.0078   -1.6194 O.2       1 <0>        -0.4583
     37 H3          1.0053    1.8021    0.0021 H         1 <0>         0.1123
     38 H4         -0.5445    1.7859   -0.8732 H         1 <0>         0.0636
     39 H5         -0.5275    1.7763    0.9067 H         1 <0>         0.0655
     40 H6         -2.3345    1.1804    0.0211 H         1 <0>         0.1419
     41 H7         -4.5101    0.0296    0.0349 H         1 <0>         0.1399
     42 H8         -2.5225   -3.7442    0.0158 H         1 <0>         0.1525
     43 H9          1.1058   -3.3636   -2.1060 H         1 <0>         0.4208
     44 H10         0.6519   -0.6543   -1.9882 H         1 <0>         0.0757
     45 H11         2.0115   -0.9170   -0.8698 H         1 <0>         0.0998
     46 H12         4.1604   -1.6927   -1.6875 H         1 <0>         0.1443
     47 H13         5.7186   -1.7868   -3.5900 H         1 <0>         0.1399
     48 H14         0.9048   -1.0538   -4.3671 H         1 <0>         0.1361
     49 H15         4.0035   -1.3226   -8.1729 H         1 <0>         0.1338
     50 H16         4.0906    0.2096   -7.2466 H         1 <0>         0.0864
     51 H17        -4.8842   -3.5867    0.5458 H         1 <0>         0.1074
     52 H18        -5.7137   -2.0118    0.5539 H         1 <0>         0.1028
     53 H19        -7.6051   -1.1625   -4.4319 H         1 <0>         0.0820
     54 H20        -5.9027   -1.4930   -4.8660 H         1 <0>         0.0738
     55 H21        -8.2787   -3.3797   -5.2814 H         1 <0>         0.0666
     56 H22        -7.4300   -2.4865   -6.5576 H         1 <0>         0.0723
     57 H23        -6.7453   -4.8826   -6.3898 H         1 <0>         0.0734
     58 H24        -5.4021   -3.7438   -6.1813 H         1 <0>         0.0655
     59 H25        -6.8787   -5.2133   -3.9413 H         1 <0>         0.0738
     60 H26        -5.2142   -5.5318   -4.5063 H         1 <0>         0.0826
@<TRIPOS>BOND
     1    1    2 1
     2    1   37 1
     3    1   38 1
     4    1   39 1
     5    2    3 1
     6    3    8 ar
     7    3    4 ar
     8    4    5 ar
     9    4   40 1
    10    5    6 ar
    11    5   41 1
    12    6    7 ar
    13    6   23 1
    14    7    8 ar
    15    7   42 1
    16    8    9 1
    17    9   10 2
    18    9   11 2
    19    9   12 1
    20   12   13 1
    21   12   43 1
    22   13   14 1
    23   13   44 1
    24   13   45 1
    25   14   19 ar
    26   14   15 ar
    27   15   16 ar
    28   15   46 1
    29   16   17 ar
    30   16   47 1
    31   17   22 1
    32   17   18 ar
    33   18   19 ar
    34   18   20 1
    35   19   48 1
    36   20   21 1
    37   21   22 1
    38   21   49 1
    39   21   50 1
    40   23   24 1
    41   23   51 1
    42   23   52 1
    43   24   35 am
    44   24   25 am
    45   25   26 2
    46   25   27 1
    47   27   28 1
    48   27   33 1
    49   27   29 1
    50   29   30 1
    51   29   53 1
    52   29   54 1
    53   30   31 1
    54   30   55 1
    55   30   56 1
    56   31   32 1
    57   31   57 1
    58   31   58 1
    59   32   33 1
    60   32   59 1
    61   32   60 1
    62   33   34 1
    63   33   35 1
    64   35   36 2
@<TRIPOS>MOLECULE
ZINC08646629
   49    51     0     0     0
SMALL
USER_CHARGES
N-[(2-bromophenyl)methyl]-N-methyl-2-[4-methyl-4-(4-nitrophenyl)-2,5-dioxo-imidazolidin-1-yl]-acetamide
@<TRIPOS>ATOM
      1 C1         -7.1653    3.4487    6.3827 C.3       1 <0>        -0.1471
      2 C2         -6.3459    3.8820    5.1655 C.3       1 <0>         0.1637
      3 C3         -5.9738    2.6814    4.3183 C.2       1 <0>         0.5419
      4 O1         -6.7304    1.9191    3.7560 O.2       1 <0>        -0.4504
      5 N1         -4.6268    2.6380    4.3194 N.am      1 <0>        -0.5584
      6 C4         -4.1017    3.6312    5.0461 C.2       1 <0>         0.7118
      7 O2         -2.9076    3.7978    5.1995 O.2       1 <0>        -0.5262
      8 N2         -5.0431    4.4269    5.5849 N.am      1 <0>        -0.7162
      9 C5         -3.8354    1.6250    3.6169 C.3       1 <0>         0.0998
     10 C6         -3.5365    2.1015    2.2188 C.2       1 <0>         0.5050
     11 O3         -3.9444    3.1811    1.8460 O.2       1 <0>        -0.5226
     12 N3         -2.8159    1.3280    1.3828 N.am      1 <0>        -0.6014
     13 C7         -2.3232    0.0240    1.8332 C.3       1 <0>         0.0647
     14 C8         -2.5254    1.7913    0.0237 C.3       1 <0>         0.1499
     15 C9         -1.2304    2.5621    0.0218 C.ar      1 <0>        -0.0839
     16 C10        -1.2487    3.9444    0.0337 C.ar      1 <0>        -0.0879
     17 C11        -0.0611    4.6515    0.0262 C.ar      1 <0>        -0.1043
     18 C12         1.1457    3.9767    0.0120 C.ar      1 <0>        -0.1076
     19 C13         1.1649    2.5949    0.0049 C.ar      1 <0>        -0.0936
     20 C14        -0.0236    1.8867    0.0124 C.ar      1 <0>        -0.0787
     21 Br1         0.0021   -0.0041    0.0020 Br        1 <0>        -0.0487
     22 C15        -7.1050    4.8940    4.3465 C.ar      1 <0>        -0.0446
     23 C16        -7.8883    4.4777    3.2863 C.ar      1 <0>        -0.1032
     24 C17        -8.5885    5.4055    2.5381 C.ar      1 <0>        -0.0459
     25 C18        -8.4970    6.7506    2.8435 C.ar      1 <0>        -0.0352
     26 C19        -7.7095    7.1674    3.9005 C.ar      1 <0>        -0.0509
     27 C20        -7.0135    6.2391    4.6519 C.ar      1 <0>        -0.0950
     28 N4         -9.2419    7.7447    2.0386 N.pl3     1 <0>         0.0249
     29 O4         -9.1609    8.9298    2.3074 O.2       1 <0>        -0.1535
     30 O5         -9.9357    7.3774    1.1073 O.3       1 <0>        -0.1528
     31 H1         -6.5836    2.7478    6.9815 H         1 <0>         0.0811
     32 H2         -7.4120    4.3233    6.9847 H         1 <0>         0.0876
     33 H3         -8.0841    2.9663    6.0492 H         1 <0>         0.0913
     34 H4         -4.8934    5.2058    6.1433 H         1 <0>         0.4432
     35 H5         -4.3978    0.6924    3.5705 H         1 <0>         0.1300
     36 H6         -2.9003    1.4591    4.1519 H         1 <0>         0.1314
     37 H7         -1.3364    0.1432    2.2806 H         1 <0>         0.0673
     38 H8         -3.0099   -0.3884    2.5725 H         1 <0>         0.0717
     39 H9         -2.2566   -0.6532    0.9817 H         1 <0>         0.0839
     40 H10        -3.3332    2.4371   -0.3205 H         1 <0>         0.0990
     41 H11        -2.4381    0.9326   -0.6420 H         1 <0>         0.0976
     42 H12        -2.1910    4.4718    0.0445 H         1 <0>         0.1338
     43 H13        -0.0757    5.7313    0.0310 H         1 <0>         0.1306
     44 H14         2.0734    4.5296    0.0061 H         1 <0>         0.1334
     45 H15         2.1075    2.0680   -0.0069 H         1 <0>         0.1343
     46 H16        -7.9563    3.4272    3.0449 H         1 <0>         0.1625
     47 H17        -9.2034    5.0799    1.7121 H         1 <0>         0.1599
     48 H18        -7.6378    8.2183    4.1389 H         1 <0>         0.1601
     49 H19        -6.3980    6.5647    5.4775 H         1 <0>         0.1477
@<TRIPOS>BOND
     1    1    2 1
     2    1   31 1
     3    1   32 1
     4    1   33 1
     5    2    8 1
     6    2    3 1
     7    2   22 1
     8    3    4 2
     9    3    5 am
    10    5    6 am
    11    5    9 1
    12    6    7 2
    13    6    8 am
    14    8   34 1
    15    9   10 1
    16    9   35 1
    17    9   36 1
    18   10   11 2
    19   10   12 am
    20   12   13 1
    21   12   14 1
    22   13   37 1
    23   13   38 1
    24   13   39 1
    25   14   15 1
    26   14   40 1
    27   14   41 1
    28   15   20 ar
    29   15   16 ar
    30   16   17 ar
    31   16   42 1
    32   17   18 ar
    33   17   43 1
    34   18   19 ar
    35   18   44 1
    36   19   20 ar
    37   19   45 1
    38   20   21 1
    39   22   27 ar
    40   22   23 ar
    41   23   24 ar
    42   23   46 1
    43   24   25 ar
    44   24   47 1
    45   25   26 ar
    46   25   28 1
    47   26   27 ar
    48   26   48 1
    49   27   49 1
    50   28   29 2
    51   28   30 1
@<TRIPOS>MOLECULE
ZINC12071780
   61    65     0     0     0
SMALL
USER_CHARGES
(3R)-N-[2-[5-[(4-fluorophenyl)methyl]-4-oxo-pyrazolo[5,4-d]pyrimidin-1-yl]ethyl]-5-oxo-1-(p-tolyl)pyrrolidine-3-carboxamide
@<TRIPOS>ATOM
      1 C1         -2.5132    0.9767    0.0197 C.3       1 <0>        -0.1133
      2 C2         -1.2198    1.7502    0.0173 C.ar      1 <0>        -0.1088
      3 C3         -0.0128    1.0760   -0.0074 C.ar      1 <0>        -0.0923
      4 C4          1.1742    1.7820   -0.0150 C.ar      1 <0>        -0.1507
      5 C5          1.1547    3.1704    0.0076 C.ar      1 <0>         0.1559
      6 C6         -0.0591    3.8444    0.0378 C.ar      1 <0>        -0.1516
      7 C7         -1.2426    3.1325    0.0452 C.ar      1 <0>        -0.0930
      8 N1          2.3555    3.8887    0.0005 N.am      1 <0>        -0.5574
      9 C8          2.4459    5.3498   -0.1044 C.3       1 <0>         0.1116
     10 C9          3.8755    5.7071    0.3652 C.3       1 <0>        -0.1229
     11 H1          3.8959    5.9287    1.4322 H         1 <0>         0.1279
     12 C10         4.6423    4.4003    0.0566 C.3       1 <0>        -0.1442
     13 C11         3.5747    3.3287    0.0829 C.2       1 <0>         0.5189
     14 O1          3.7880    2.1376    0.1660 O.2       1 <0>        -0.5028
     15 C12         4.4294    6.8588   -0.4335 C.2       1 <0>         0.5313
     16 O2          3.7218    7.4424   -1.2270 O.2       1 <0>        -0.5225
     17 N2          5.7111    7.2404   -0.2659 N.am      1 <0>        -0.7237
     18 C13         6.2496    8.3600   -1.0422 C.3       1 <0>         0.1053
     19 C14         7.7150    8.5848   -0.6640 C.3       1 <0>         0.1261
     20 N3          8.2535    9.7044   -1.4403 N.pl3     1 <0>        -0.3518
     21 C15         8.8622    9.6128   -2.6511 C.2       1 <0>         0.3381
     22 C16         9.2140   10.9200   -3.0228 C.2       1 <0>        -0.3393
     23 C17         8.7983   11.7755   -1.9855 C.2       1 <0>         0.1334
     24 N4          8.2341   11.0518   -1.0584 N.2       1 <0>        -0.2664
     25 C18         9.8900   11.1135   -4.3056 C.2       1 <0>         0.5765
     26 O3         10.2253   12.2225   -4.6823 O.2       1 <0>        -0.5106
     27 N5         10.1296   10.0141   -5.0581 N.am      1 <0>        -0.5400
     28 C19         9.7477    8.7882   -4.6194 C.2       1 <0>         0.4197
     29 N6          9.1458    8.5975   -3.4821 N.2       1 <0>        -0.5336
     30 C20        10.8036   10.1484   -6.3519 C.3       1 <0>         0.1387
     31 C21        12.2933   10.0315   -6.1568 C.ar      1 <0>        -0.1356
     32 C22        13.0488   11.1632   -5.9126 C.ar      1 <0>        -0.0597
     33 C23        14.4144   11.0566   -5.7287 C.ar      1 <0>        -0.1557
     34 C24        15.0273    9.8171   -5.7996 C.ar      1 <0>         0.1119
     35 C25        14.2703    8.6850   -6.0495 C.ar      1 <0>        -0.1567
     36 C26        12.9042    8.7934   -6.2278 C.ar      1 <0>        -0.0729
     37 F1         16.3628    9.7123   -5.6247 F         1 <0>        -0.1358
     38 H2         -2.8132    0.7736    1.0478 H         1 <0>         0.0696
     39 H3         -3.2876    1.5622   -0.4758 H         1 <0>         0.0659
     40 H4         -2.3742    0.0348   -0.5110 H         1 <0>         0.0661
     41 H5          0.0017   -0.0038   -0.0254 H         1 <0>         0.1269
     42 H6          2.1166    1.2550   -0.0389 H         1 <0>         0.1545
     43 H7         -0.0776    4.9241    0.0558 H         1 <0>         0.1263
     44 H8         -2.1869    3.6561    0.0683 H         1 <0>         0.1271
     45 H9          2.2956    5.6638   -1.1373 H         1 <0>         0.1011
     46 H10         1.7080    5.8209    0.5450 H         1 <0>         0.0957
     47 H11         5.3938    4.2090    0.8226 H         1 <0>         0.1192
     48 H12         5.1054    4.4533   -0.9287 H         1 <0>         0.1155
     49 H13         6.2771    6.7737    0.3688 H         1 <0>         0.4057
     50 H14         6.1798    8.1315   -2.1057 H         1 <0>         0.0787
     51 H15         5.6761    9.2613   -0.8258 H         1 <0>         0.0815
     52 H16         7.7848    8.8133    0.3995 H         1 <0>         0.1083
     53 H17         8.2885    7.6835   -0.8804 H         1 <0>         0.1082
     54 H18         8.9251   12.8478   -1.9611 H         1 <0>         0.2005
     55 H19         9.9533    7.9309   -5.2432 H         1 <0>         0.2122
     56 H20        10.4621    9.3603   -7.0231 H         1 <0>         0.1112
     57 H21        10.5690   11.1210   -6.7845 H         1 <0>         0.1147
     58 H22        12.5711   12.1305   -5.8613 H         1 <0>         0.1415
     59 H23        15.0038   11.9404   -5.5338 H         1 <0>         0.1393
     60 H24        14.7472    7.7176   -6.1047 H         1 <0>         0.1398
     61 H25        12.3135    7.9104   -6.4224 H         1 <0>         0.1363
@<TRIPOS>BOND
     1    1    2 1
     2    1   38 1
     3    1   39 1
     4    1   40 1
     5    2    7 ar
     6    2    3 ar
     7    3    4 ar
     8    3   41 1
     9    4    5 ar
    10    4   42 1
    11    5    6 ar
    12    5    8 1
    13    6    7 ar
    14    6   43 1
    15    7   44 1
    16    8   13 am
    17    8    9 1
    18    9   10 1
    19    9   45 1
    20    9   46 1
    21   10   11 1
    22   10   12 1
    23   10   15 1
    24   12   13 1
    25   12   47 1
    26   12   48 1
    27   13   14 2
    28   15   16 2
    29   15   17 am
    30   17   18 1
    31   17   49 1
    32   18   19 1
    33   18   50 1
    34   18   51 1
    35   19   20 1
    36   19   52 1
    37   19   53 1
    38   20   24 1
    39   20   21 1
    40   21   29 1
    41   21   22 2
    42   22   23 1
    43   22   25 1
    44   23   24 2
    45   23   54 1
    46   25   26 2
    47   25   27 am
    48   27   28 1
    49   27   30 1
    50   28   29 2
    51   28   55 1
    52   30   31 1
    53   30   56 1
    54   30   57 1
    55   31   36 ar
    56   31   32 ar
    57   32   33 ar
    58   32   58 1
    59   33   34 ar
    60   33   59 1
    61   34   35 ar
    62   34   37 1
    63   35   36 ar
    64   35   60 1
    65   36   61 1
@<TRIPOS>MOLECULE
ZINC20083393
   69    73     0     0     0
SMALL
USER_CHARGES
3-[(R)-(4-benzylpiperazin-1-yl)-[1-(2-methoxyethyl)tetrazol-5-yl]methyl]-5,8-dimethyl-1H-quinolin-2-one
@<TRIPOS>ATOM
      1 C1          2.3814    0.0150    9.2568 C.3       1 <0>        -0.1251
      2 C2          3.6547   -0.3991    8.5652 C.ar      1 <0>        -0.0213
      3 C3          4.8664   -0.0781    9.1090 C.ar      1 <0>        -0.1531
      4 C4          6.0449   -0.4556    8.4805 C.ar      1 <0>        -0.0568
      5 C5          6.0161   -1.1607    7.2963 C.ar      1 <0>        -0.1409
      6 C6          4.7945   -1.4983    6.7237 C.ar      1 <0>         0.2073
      7 C7          3.6012   -1.1140    7.3645 C.ar      1 <0>        -0.1396
      8 C8          2.3201   -1.4748    6.7543 C.2       1 <0>        -0.0063
      9 C9          2.3302   -2.1689    5.5896 C.2       1 <0>        -0.1840
     10 C10         3.5547   -2.5351    4.9908 C.2       1 <0>         0.5327
     11 O1          3.5409   -3.1633    3.9464 O.2       1 <0>        -0.4716
     12 N1          4.7361   -2.2033    5.5404 N.am      1 <0>        -0.6484
     13 H1          5.6646   -2.5026    5.0321 H         1 <0>         0.4384
     14 C11         1.0291   -2.5561    4.9351 C.3       1 <0>         0.2386
     15 H2          0.1842   -2.1020    5.4736 H         1 <0>         0.0732
     16 C12         0.8960   -4.0573    4.9311 C.2       1 <0>         0.1857
     17 N2          1.5286   -4.8969    4.1483 N.2       1 <0>        -0.2334
     18 N3          1.1472   -6.0893    4.4528 N.2       1 <0>        -0.0790
     19 N4          0.2819   -6.0315    5.4042 N.2       1 <0>        -0.0922
     20 N5          0.1001   -4.7956    5.7268 N.pl3     1 <0>        -0.3073
     21 C13        -0.8031   -4.2907    6.7638 C.3       1 <0>         0.1102
     22 C14        -2.1791   -4.0179    6.1530 C.3       1 <0>         0.0460
     23 O2         -3.0602   -3.5255    7.1645 O.3       1 <0>        -0.3826
     24 C15        -4.3792   -3.2373    6.6964 C.3       1 <0>         0.0290
     25 N6          1.0092   -2.0591    3.5529 N.3       1 <0>        -0.5036
     26 C16        -0.2477   -2.4189    2.8819 C.3       1 <0>         0.0605
     27 C17        -0.1962   -1.9538    1.4247 C.3       1 <0>         0.0595
     28 N7          0.0219   -0.5011    1.3842 N.3       1 <0>        -0.5321
     29 C18         1.2789   -0.1413    2.0553 C.3       1 <0>         0.0556
     30 C19         1.2273   -0.6064    3.5125 C.3       1 <0>         0.0645
     31 C20         0.0021   -0.0041    0.0020 C.3       1 <0>         0.0921
     32 C21        -0.0184    1.5028    0.0103 C.ar      1 <0>        -0.0772
     33 C22        -1.2248    2.1776    0.0197 C.ar      1 <0>        -0.0989
     34 C23        -1.2435    3.5598    0.0322 C.ar      1 <0>        -0.1209
     35 C24        -0.0559    4.2672    0.0251 C.ar      1 <0>        -0.1201
     36 C25         1.1505    3.5924    0.0100 C.ar      1 <0>        -0.1204
     37 C26         1.1693    2.2102    0.0028 C.ar      1 <0>        -0.1149
     38 C27         7.3035   -1.5646    6.6250 C.3       1 <0>        -0.1125
     39 H3          2.6264    0.5633   10.1784 H         1 <0>         0.0749
     40 H4          1.7929   -0.8797    9.5079 H         1 <0>         0.0751
     41 H5          1.7956    0.6636    8.5889 H         1 <0>         0.0763
     42 H6          4.9075    0.4739   10.0363 H         1 <0>         0.1299
     43 H7          6.9944   -0.1946    8.9240 H         1 <0>         0.1318
     44 H8          1.3878   -1.1947    7.2218 H         1 <0>         0.1419
     45 H9         -0.8989   -5.0402    7.5633 H         1 <0>         0.1273
     46 H10        -0.3962   -3.3583    7.1822 H         1 <0>         0.1159
     47 H11        -2.0833   -3.2684    5.3536 H         1 <0>         0.0587
     48 H12        -2.5859   -4.9503    5.7345 H         1 <0>         0.0685
     49 H13        -4.9914   -2.8653    7.5312 H         1 <0>         0.0968
     50 H14        -4.8321   -4.1534    6.2893 H         1 <0>         0.0481
     51 H15        -4.3294   -2.4714    5.9084 H         1 <0>         0.0471
     52 H16        -0.3816   -3.5102    2.9150 H         1 <0>         0.0741
     53 H17        -1.0897   -1.9305    3.3942 H         1 <0>         0.0416
     54 H18         0.6288   -2.4640    0.9059 H         1 <0>         0.0516
     55 H19        -1.1474   -2.1967    0.9284 H         1 <0>         0.0821
     56 H20         2.1209   -0.6298    1.5430 H         1 <0>         0.0474
     57 H21         1.4129    0.9500    2.0222 H         1 <0>         0.0864
     58 H22         0.4022   -0.0972    4.0319 H         1 <0>         0.0449
     59 H23         2.1783   -0.3644    4.0095 H         1 <0>         0.0795
     60 H24         0.9002   -0.3557   -0.5270 H         1 <0>         0.0465
     61 H25        -0.8958   -0.3802   -0.5101 H         1 <0>         0.0850
     62 H26        -2.1527    1.6249    0.0211 H         1 <0>         0.1211
     63 H27        -2.1860    4.0870    0.0437 H         1 <0>         0.1212
     64 H28        -0.0705    5.3471    0.0311 H         1 <0>         0.1206
     65 H29         2.0784    4.1450    0.0041 H         1 <0>         0.1210
     66 H30         2.1118    1.6830   -0.0091 H         1 <0>         0.1183
     67 H31         7.0776   -2.1149    5.6997 H         1 <0>         0.0590
     68 H32         7.8838   -2.2085    7.3022 H         1 <0>         0.0779
     69 H33         7.8888   -0.6652    6.3831 H         1 <0>         0.0783
@<TRIPOS>BOND
     1    1    2 1
     2    1   39 1
     3    1   40 1
     4    1   41 1
     5    2    7 ar
     6    2    3 ar
     7    3    4 ar
     8    3   42 1
     9    4    5 ar
    10    4   43 1
    11    5    6 ar
    12    5   38 1
    13    6   12 1
    14    6    7 ar
    15    7    8 1
    16    8    9 2
    17    8   44 1
    18    9   10 1
    19    9   14 1
    20   10   11 2
    21   10   12 am
    22   12   13 1
    23   14   15 1
    24   14   16 1
    25   14   25 1
    26   16   20 1
    27   16   17 2
    28   17   18 1
    29   18   19 2
    30   19   20 1
    31   20   21 1
    32   21   22 1
    33   21   45 1
    34   21   46 1
    35   22   23 1
    36   22   47 1
    37   22   48 1
    38   23   24 1
    39   24   49 1
    40   24   50 1
    41   24   51 1
    42   25   30 1
    43   25   26 1
    44   26   27 1
    45   26   52 1
    46   26   53 1
    47   27   28 1
    48   27   54 1
    49   27   55 1
    50   28   29 1
    51   28   31 1
    52   29   30 1
    53   29   56 1
    54   29   57 1
    55   30   58 1
    56   30   59 1
    57   31   32 1
    58   31   60 1
    59   31   61 1
    60   32   37 ar
    61   32   33 ar
    62   33   34 ar
    63   33   62 1
    64   34   35 ar
    65   34   63 1
    66   35   36 ar
    67   35   64 1
    68   36   37 ar
    69   36   65 1
    70   37   66 1
    71   38   67 1
    72   38   68 1
    73   38   69 1
@<TRIPOS>MOLECULE
ZINC35715976
   58    60     0     0     0
SMALL
USER_CHARGES

@<TRIPOS>ATOM
      1 C1         -0.3500    1.9797   -0.0221 C.3       1 <0>        -0.1660
      2 C2         -0.1922    0.4590    0.0358 C.3       1 <0>         0.1367
      3 C3          0.5576    0.0723    1.3122 C.3       1 <0>        -0.1621
      4 N1         -1.5155   -0.1696    0.0374 N.am      1 <0>        -0.7084
      5 C4         -2.1492   -0.4092   -1.1277 C.2       1 <0>         0.5950
      6 O1         -1.6224   -0.1036   -2.1804 O.2       1 <0>        -0.4913
      7 C5         -3.4807   -1.0417   -1.1261 C.2       1 <0>        -0.0160
      8 C6         -4.1849   -1.3163   -2.3927 C.2       1 <0>         0.5335
      9 O2         -3.6868   -1.0291   -3.4648 O.2       1 <0>        -0.4341
     10 N2         -5.4044   -1.8994   -2.3207 N.am      1 <0>        -0.5458
     11 C7         -5.9085   -2.1967   -1.1061 C.2       1 <0>         0.6642
     12 O3         -7.0022   -2.7208   -1.0264 O.2       1 <0>        -0.4960
     13 N3         -5.2250   -1.9250    0.0167 N.am      1 <0>        -0.3160
     14 N4         -4.0631   -1.3778    0.0053 N.2       1 <0>        -0.1299
     15 C8         -5.7995   -2.2561    1.2493 C.ar      1 <0>         0.1204
     16 C9         -6.3230   -3.5266    1.4528 C.ar      1 <0>        -0.0739
     17 C10        -6.8899   -3.8551    2.6688 C.ar      1 <0>        -0.1612
     18 C11        -6.9376   -2.9176    3.6887 C.ar      1 <0>         0.1232
     19 C12        -6.4139   -1.6435    3.4881 C.ar      1 <0>         0.1131
     20 C13        -5.8410   -1.3160    2.2710 C.ar      1 <0>        -0.1484
     21 O4         -6.4608   -0.7231    4.4880 O.3       1 <0>        -0.2977
     22 C14        -5.9045    0.5639    4.2118 C.3       1 <0>         0.0222
     23 O5         -7.4965   -3.2424    4.8854 O.3       1 <0>        -0.2993
     24 C15        -8.0145   -4.5673    5.0211 C.3       1 <0>         0.0218
     25 C16        -6.1615   -2.2010   -3.5381 C.3       1 <0>         0.1485
     26 C17        -5.8117   -3.5865   -4.0169 C.ar      1 <0>        -0.0930
     27 C18        -4.7606   -3.7691   -4.8960 C.ar      1 <0>        -0.0924
     28 C19        -4.4398   -5.0399   -5.3352 C.ar      1 <0>        -0.0728
     29 C20        -5.1696   -6.1282   -4.8950 C.ar      1 <0>        -0.1704
     30 C21        -6.2201   -5.9457   -4.0151 C.ar      1 <0>        -0.0749
     31 C22        -6.5383   -4.6753   -3.5726 C.ar      1 <0>        -0.0938
     32 C23        -4.8205   -7.5135   -5.3745 C.3       1 <0>         0.5076
     33 F1         -3.8849   -8.0857   -4.5059 F         1 <0>        -0.1752
     34 F2         -5.9754   -8.3026   -5.4015 F         1 <0>        -0.1752
     35 F3         -4.2769   -7.4383   -6.6614 F         1 <0>        -0.1747
     36 H1          0.6345    2.4474   -0.0233 H         1 <0>         0.0701
     37 H2         -0.8842    2.2552   -0.9314 H         1 <0>         0.0624
     38 H3         -0.9128    2.3200    0.8472 H         1 <0>         0.0582
     39 H4          0.3706    0.1187   -0.8334 H         1 <0>         0.0939
     40 H5         -0.0052    0.4125    2.1814 H         1 <0>         0.0629
     41 H6          0.6700   -1.0111    1.3534 H         1 <0>         0.0638
     42 H7          1.5422    0.5399    1.3110 H         1 <0>         0.0771
     43 H8         -1.9357   -0.4133    0.8770 H         1 <0>         0.4069
     44 H9         -6.2871   -4.2583    0.6593 H         1 <0>         0.1376
     45 H10        -7.2966   -4.8433    2.8250 H         1 <0>         0.1500
     46 H11        -5.4306   -0.3294    2.1148 H         1 <0>         0.1466
     47 H12        -4.8491    0.4573    3.9611 H         1 <0>         0.0586
     48 H13        -6.4334    1.0158    3.3726 H         1 <0>         0.0561
     49 H14        -6.0066    1.2002    5.0908 H         1 <0>         0.1062
     50 H15        -8.4304   -4.6942    6.0207 H         1 <0>         0.1055
     51 H16        -8.7963   -4.7296    4.2791 H         1 <0>         0.0594
     52 H17        -7.2121   -5.2887    4.8672 H         1 <0>         0.0592
     53 H18        -7.2290   -2.1492   -3.3243 H         1 <0>         0.1191
     54 H19        -5.9102   -1.4751   -4.3114 H         1 <0>         0.1203
     55 H20        -4.1904   -2.9189   -5.2400 H         1 <0>         0.1442
     56 H21        -3.6190   -5.1825   -6.0226 H         1 <0>         0.1410
     57 H22        -6.7906   -6.7959   -3.6714 H         1 <0>         0.1401
     58 H23        -7.3566   -4.5331   -2.8823 H         1 <0>         0.1431
@<TRIPOS>BOND
     1    1    2 1
     2    1   36 1
     3    1   37 1
     4    1   38 1
     5    2    3 1
     6    2    4 1
     7    2   39 1
     8    3   40 1
     9    3   41 1
    10    3   42 1
    11    4    5 am
    12    4   43 1
    13    5    6 2
    14    5    7 1
    15    7   14 2
    16    7    8 1
    17    8    9 2
    18    8   10 am
    19   10   11 am
    20   10   25 1
    21   11   12 2
    22   11   13 am
    23   13   14 1
    24   13   15 1
    25   15   20 ar
    26   15   16 ar
    27   16   17 ar
    28   16   44 1
    29   17   18 ar
    30   17   45 1
    31   18   19 ar
    32   18   23 1
    33   19   20 ar
    34   19   21 1
    35   20   46 1
    36   21   22 1
    37   22   47 1
    38   22   48 1
    39   22   49 1
    40   23   24 1
    41   24   50 1
    42   24   51 1
    43   24   52 1
    44   25   26 1
    45   25   53 1
    46   25   54 1
    47   26   31 ar
    48   26   27 ar
    49   27   28 ar
    50   27   55 1
    51   28   29 ar
    52   28   56 1
    53   29   30 ar
    54   29   32 1
    55   30   31 ar
    56   30   57 1
    57   31   58 1
    58   32   33 1
    59   32   34 1
    60   32   35 1
@<TRIPOS>MOLECULE
ZINC01326926
   60    65     0     0     0
SMALL
USER_CHARGES

@<TRIPOS>ATOM
      1 C1          0.3502    1.1108   -0.0938 C.ar      1 <0>        -0.0682
      2 C2          1.6414    1.6031   -0.1144 C.ar      1 <0>        -0.1532
      3 C3          2.7152    0.7313   -0.0509 C.ar      1 <0>         0.1006
      4 C4          2.4939   -0.6329    0.0333 C.ar      1 <0>        -0.1526
      5 C5          1.2019   -1.1228    0.0537 C.ar      1 <0>        -0.0901
      6 C6          0.1305   -0.2514   -0.0097 C.ar      1 <0>        -0.0974
      7 C7         -1.2779   -0.7870    0.0127 C.3       1 <0>         0.0969
      8 N1         -1.7745   -0.9165   -1.3637 N.3       1 <0>        -0.5257
      9 C8         -3.1854   -1.3254   -1.3781 C.3       1 <0>         0.1087
     10 C9         -4.0332   -0.2254   -0.7930 C.2       1 <0>        -0.1812
     11 C10        -4.6278    0.6786   -1.6127 C.2       1 <0>         0.0140
     12 C11        -5.4441    1.7341   -1.0146 C.ar      1 <0>        -0.1212
     13 C12        -6.0799    2.6945   -1.8115 C.ar      1 <0>        -0.0382
     14 C13        -6.8415    3.6774   -1.2194 C.ar      1 <0>         0.0065
     15 C14        -6.9821    3.7184    0.1736 C.ar      1 <0>         0.0977
     16 C15        -6.3580    2.7741    0.9679 C.ar      1 <0>        -0.1523
     17 C16        -5.5860    1.7765    0.3860 C.ar      1 <0>         0.2019
     18 N2         -4.9550    0.8264    1.1634 N.am      1 <0>        -0.6241
     19 H1         -5.0536    0.8557    2.1279 H         1 <0>         0.4190
     20 C17        -4.2105   -0.1426    0.6028 C.2       1 <0>         0.5433
     21 O1         -3.6710   -0.9675    1.3203 O.2       1 <0>        -0.5292
     22 O2         -7.7785    4.7781    0.4967 O.3       1 <0>        -0.3011
     23 C18        -7.7871    5.6240   -0.6680 C.3       1 <0>         0.2120
     24 O3         -7.5515    4.7130   -1.7575 O.3       1 <0>        -0.3025
     25 C19        -0.9471   -1.8529   -2.1360 C.3       1 <0>         0.1253
     26 C20        -1.2462   -1.6941   -3.6045 C.2       1 <0>         0.1900
     27 N3         -2.0913   -2.4033   -4.3121 N.2       1 <0>        -0.3015
     28 N4         -2.0633   -1.9639   -5.5230 N.2       1 <0>        -0.0775
     29 N5         -1.2222   -0.9928   -5.6061 N.2       1 <0>        -0.0891
     30 N6         -0.7016   -0.7927   -4.4426 N.pl3     1 <0>        -0.2856
     31 C21         0.2973    0.2224   -4.0992 C.3       1 <0>         0.1417
     32 C22        -0.2784    1.6331   -4.3404 C.3       1 <0>        -0.1265
     33 C23         0.9231    2.4460   -4.8833 C.3       1 <0>        -0.1215
     34 C24         1.6522    1.4182   -5.7839 C.3       1 <0>        -0.1222
     35 C25         1.5248    0.0857   -5.0170 C.3       1 <0>        -0.1343
     36 F1          3.9779    1.2114   -0.0714 F         1 <0>        -0.1383
     37 H2         -0.4875    1.7909   -0.1388 H         1 <0>         0.1320
     38 H3          1.8128    2.6674   -0.1804 H         1 <0>         0.1362
     39 H4          3.3307   -1.3139    0.0825 H         1 <0>         0.1369
     40 H5          1.0290   -2.1869    0.1190 H         1 <0>         0.1331
     41 H6         -1.2875   -1.7640    0.4959 H         1 <0>         0.0605
     42 H7         -1.9186   -0.1012    0.5671 H         1 <0>         0.0984
     43 H8         -3.4975   -1.5178   -2.4045 H         1 <0>         0.0957
     44 H9         -3.3069   -2.2321   -0.7854 H         1 <0>         0.0670
     45 H10        -4.5005    0.6197   -2.6836 H         1 <0>         0.1459
     46 H11        -5.9731    2.6646   -2.8858 H         1 <0>         0.1504
     47 H12        -6.4714    2.8118    2.0413 H         1 <0>         0.1489
     48 H13        -8.7555    6.1116   -0.7795 H         1 <0>         0.1380
     49 H14        -6.9893    6.3644   -0.6090 H         1 <0>         0.0909
     50 H15         0.1066   -1.6412   -1.9548 H         1 <0>         0.1061
     51 H16        -1.1707   -2.8743   -1.8280 H         1 <0>         0.0855
     52 H17         0.5966    0.1137   -3.0568 H         1 <0>         0.1197
     53 H18        -1.0794    1.5971   -5.0788 H         1 <0>         0.0826
     54 H19        -0.6387    2.0630   -3.4059 H         1 <0>         0.0833
     55 H20         0.5796    3.2982   -5.4697 H         1 <0>         0.0779
     56 H21         1.5690    2.7719   -4.0680 H         1 <0>         0.0741
     57 H22         1.1629    1.3475   -6.7554 H         1 <0>         0.0747
     58 H23         2.7007    1.6912   -5.9028 H         1 <0>         0.0749
     59 H24         2.4199   -0.0885   -4.4199 H         1 <0>         0.0834
     60 H25         1.3773   -0.7359   -5.7179 H         1 <0>         0.0795
@<TRIPOS>BOND
     1    1    6 ar
     2    1    2 ar
     3    1   37 1
     4    2    3 ar
     5    2   38 1
     6    3    4 ar
     7    3   36 1
     8    4    5 ar
     9    4   39 1
    10    5    6 ar
    11    5   40 1
    12    6    7 1
    13    7    8 1
    14    7   41 1
    15    7   42 1
    16    8    9 1
    17    8   25 1
    18    9   10 1
    19    9   43 1
    20    9   44 1
    21   10   20 1
    22   10   11 2
    23   11   12 1
    24   11   45 1
    25   12   17 ar
    26   12   13 ar
    27   13   14 ar
    28   13   46 1
    29   14   24 1
    30   14   15 ar
    31   15   16 ar
    32   15   22 1
    33   16   17 ar
    34   16   47 1
    35   17   18 1
    36   18   19 1
    37   18   20 am
    38   20   21 2
    39   22   23 1
    40   23   24 1
    41   23   48 1
    42   23   49 1
    43   25   26 1
    44   25   50 1
    45   25   51 1
    46   26   30 1
    47   26   27 2
    48   27   28 1
    49   28   29 2
    50   29   30 1
    51   30   31 1
    52   31   35 1
    53   31   32 1
    54   31   52 1
    55   32   33 1
    56   32   53 1
    57   32   54 1
    58   33   34 1
    59   33   55 1
    60   33   56 1
    61   34   35 1
    62   34   57 1
    63   34   58 1
    64   35   59 1
    65   35   60 1
@<TRIPOS>MOLECULE
ZINC08661804
   60    64     0     0     0
SMALL
USER_CHARGES
3-[4-(3-methoxyphenyl)piperazin-1-yl]carbonylpropyl-thioxo-BLAHone
@<TRIPOS>ATOM
      1 C1          0.9367   11.1168    3.8965 C.3       1 <0>         0.0273
      2 O1          0.6799   10.0954    2.9307 O.3       1 <0>        -0.3168
      3 C2          1.5551    9.0568    2.8836 C.ar      1 <0>         0.1519
      4 C3          2.6388    9.0220    3.7503 C.ar      1 <0>        -0.2327
      5 C4          3.5290    7.9662    3.7044 C.ar      1 <0>        -0.0523
      6 C5          3.3413    6.9397    2.7989 C.ar      1 <0>        -0.2073
      7 C6          2.2614    6.9718    1.9254 C.ar      1 <0>         0.1494
      8 C7          1.3658    8.0317    1.9706 C.ar      1 <0>        -0.1746
      9 N1          2.0739    5.9365    1.0070 N.pl3     1 <0>        -0.4868
     10 C8          3.1318    4.9248    1.1309 C.3       1 <0>         0.0378
     11 C9          2.9953    3.9059   -0.0056 C.3       1 <0>         0.1150
     12 N2          1.6234    3.3757    0.0047 N.am      1 <0>        -0.6184
     13 C10         0.5072    4.3334    0.0144 C.3       1 <0>         0.1092
     14 C11         0.7418    5.3354    1.1559 C.3       1 <0>         0.0417
     15 C12         1.3951    2.0474   -0.0003 C.2       1 <0>         0.5196
     16 O2          2.3275    1.2719   -0.0133 O.2       1 <0>        -0.5356
     17 C13        -0.0187    1.5258    0.0104 C.3       1 <0>        -0.1338
     18 C14         0.0021   -0.0041    0.0020 C.3       1 <0>        -0.1156
     19 C15        -1.4333   -0.5336    0.0129 C.3       1 <0>         0.0906
     20 N3         -1.4134   -1.9985    0.0048 N.am      1 <0>        -0.5067
     21 C16        -1.3932   -2.6666    1.1783 C.2       1 <0>         0.5602
     22 O3         -1.3909   -2.0675    2.2368 O.2       1 <0>        -0.4666
     23 C17        -1.3736   -4.1379    1.1443 C.ar      1 <0>        -0.1772
     24 C18        -1.3530   -4.8969    2.3147 C.ar      1 <0>        -0.0004
     25 C19        -1.3355   -6.2746    2.2338 C.ar      1 <0>         0.0136
     26 C20        -1.3379   -6.9069    0.9865 C.ar      1 <0>         0.1152
     27 C21        -1.3584   -6.1572   -0.1791 C.ar      1 <0>        -0.1375
     28 C22        -1.3765   -4.7748   -0.1100 C.ar      1 <0>         0.1887
     29 N4         -1.3981   -3.9911   -1.2566 N.pl3     1 <0>        -0.5799
     30 H1         -1.4009   -4.4155   -2.1288 H         1 <0>         0.4504
     31 C23        -1.4212   -2.6500   -1.1685 C.2       1 <0>         0.5320
     32 S1         -1.4544   -1.7340   -2.6145 S.2       1 <0>        -0.5328
     33 O4         -1.3174   -8.2562    1.1845 O.3       1 <0>        -0.2951
     34 C24        -1.7169   -8.4515    2.5536 C.3       1 <0>         0.2109
     35 O5         -1.3141   -7.2333    3.2067 O.3       1 <0>        -0.2965
     36 H2          0.1652   11.8838    3.8281 H         1 <0>         0.1014
     37 H3          0.9292   10.6820    4.8960 H         1 <0>         0.0563
     38 H4          1.9116   11.5639    3.7021 H         1 <0>         0.0567
     39 H5          2.7861    9.8210    4.4618 H         1 <0>         0.1275
     40 H6          4.3709    7.9413    4.3804 H         1 <0>         0.1261
     41 H7          4.0365    6.1138    2.7676 H         1 <0>         0.1285
     42 H8          0.5234    8.0573    1.2952 H         1 <0>         0.1337
     43 H9          3.0372    4.4151    2.0897 H         1 <0>         0.0533
     44 H10         4.1067    5.4087    1.0704 H         1 <0>         0.0980
     45 H11         3.7037    3.0915    0.1457 H         1 <0>         0.1009
     46 H12         3.1933    4.3906   -0.9616 H         1 <0>         0.0785
     47 H13         0.4696    4.8615   -0.9384 H         1 <0>         0.0842
     48 H14        -0.4300    3.8018    0.1788 H         1 <0>         0.0968
     49 H15         0.6804    4.8200    2.1144 H         1 <0>         0.0523
     50 H16        -0.0167    6.1172    1.1141 H         1 <0>         0.0984
     51 H17        -0.5459    1.8868   -0.8726 H         1 <0>         0.1044
     52 H18        -0.5289    1.8773    0.9072 H         1 <0>         0.0976
     53 H19         0.5123   -0.3556   -0.8948 H         1 <0>         0.0875
     54 H20         0.5293   -0.3651    0.8851 H         1 <0>         0.0740
     55 H21        -1.9435   -0.1821    0.9097 H         1 <0>         0.1060
     56 H22        -1.9605   -0.1726   -0.8702 H         1 <0>         0.1295
     57 H23        -1.3512   -4.4093    3.2783 H         1 <0>         0.1632
     58 H24        -1.3606   -6.6508   -1.1397 H         1 <0>         0.1602
     59 H25        -2.7967   -8.5835    2.6221 H         1 <0>         0.0954
     60 H26        -1.1996   -9.3087    2.9847 H         1 <0>         0.1428
@<TRIPOS>BOND
     1    1    2 1
     2    1   36 1
     3    1   37 1
     4    1   38 1
     5    2    3 1
     6    3    8 ar
     7    3    4 ar
     8    4    5 ar
     9    4   39 1
    10    5    6 ar
    11    5   40 1
    12    6    7 ar
    13    6   41 1
    14    7    8 ar
    15    7    9 1
    16    8   42 1
    17    9   14 1
    18    9   10 1
    19   10   11 1
    20   10   43 1
    21   10   44 1
    22   11   12 1
    23   11   45 1
    24   11   46 1
    25   12   13 1
    26   12   15 am
    27   13   14 1
    28   13   47 1
    29   13   48 1
    30   14   49 1
    31   14   50 1
    32   15   16 2
    33   15   17 1
    34   17   18 1
    35   17   51 1
    36   17   52 1
    37   18   19 1
    38   18   53 1
    39   18   54 1
    40   19   20 1
    41   19   55 1
    42   19   56 1
    43   20   31 1
    44   20   21 am
    45   21   22 2
    46   21   23 1
    47   23   28 ar
    48   23   24 ar
    49   24   25 ar
    50   24   57 1
    51   25   35 1
    52   25   26 ar
    53   26   27 ar
    54   26   33 1
    55   27   28 ar
    56   27   58 1
    57   28   29 1
    58   29   30 1
    59   29   31 1
    60   31   32 2
    61   33   34 1
    62   34   35 1
    63   34   59 1
    64   34   60 1
@<TRIPOS>MOLECULE
ZINC15728486
   65    68     0     0     0
SMALL
USER_CHARGES
N-[2-[4-(4-acetylphenyl)piperazin-1-yl]-2-oxo-ethyl]-N-methyl-2-oxo-1,3,4,5-tetrahydro-1-benzazepine-7-sulfonamide
@<TRIPOS>ATOM
      1 C1        -13.9557    6.1114    0.5885 C.3       1 <0>        -0.1940
      2 C2        -13.0141    6.2282    1.7592 C.2       1 <0>         0.3949
      3 O1        -12.9999    7.2405    2.4276 O.2       1 <0>        -0.4629
      4 C3        -12.1142    5.1174    2.0908 C.ar      1 <0>        -0.2030
      5 C4        -11.1585    5.2660    3.1045 C.ar      1 <0>        -0.0318
      6 C5        -10.3235    4.2297    3.4100 C.ar      1 <0>        -0.1551
      7 C6        -10.4208    3.0260    2.7155 C.ar      1 <0>         0.1482
      8 C7        -11.3661    2.8757    1.7032 C.ar      1 <0>        -0.1867
      9 C8        -12.2087    3.9050    1.3948 C.ar      1 <0>        -0.0413
     10 N1         -9.5692    1.9747    3.0292 N.pl3     1 <0>        -0.4876
     11 C9         -9.8406    0.8062    2.1812 C.3       1 <0>         0.0332
     12 C10        -9.0111   -0.3835    2.6759 C.3       1 <0>         0.1155
     13 N2         -7.5996    0.0250    2.7387 N.am      1 <0>        -0.6171
     14 C11        -7.2643    1.2609    3.4621 C.3       1 <0>         0.1077
     15 C12        -8.1632    2.3889    2.9315 C.3       1 <0>         0.0396
     16 C13        -6.6382   -0.7165    2.1535 C.2       1 <0>         0.5005
     17 O2         -6.9321   -1.7356    1.5653 O.2       1 <0>        -0.5205
     18 C14        -5.1980   -0.2794    2.2301 C.3       1 <0>         0.1058
     19 N3         -4.3558   -1.2465    1.5220 N.pl3     1 <0>        -0.9832
     20 C15        -3.8813   -2.4484    2.2123 C.3       1 <0>         0.0846
     21 S1         -3.9401   -0.9812   -0.0589 S.o2      1 <0>         2.6956
     22 O3         -4.9345   -0.1235   -0.6018 O.2       1 <0>        -0.9489
     23 O4         -3.6420   -2.2525   -0.6193 O.2       1 <0>        -0.9458
     24 C16        -2.4339   -0.0668   -0.0551 C.ar      1 <0>        -0.7029
     25 C17        -2.4576    1.3162   -0.0448 C.ar      1 <0>         0.0063
     26 C18        -1.2748    2.0138   -0.0458 C.ar      1 <0>        -0.1822
     27 C19        -0.0334    1.3537   -0.0585 C.ar      1 <0>         0.2348
     28 C20        -0.0160   -0.0240   -0.0598 C.ar      1 <0>        -0.1345
     29 C21        -1.2244   -0.7224   -0.0620 C.ar      1 <0>         0.0195
     30 C22         1.2151   -0.8709   -0.0555 C.3       1 <0>        -0.0854
     31 C23         2.3694   -0.3369    0.7342 C.3       1 <0>        -0.1218
     32 C24         3.1191    0.7691    0.0312 C.3       1 <0>        -0.1395
     33 C25         2.3536    2.0432    0.0273 C.2       1 <0>         0.5277
     34 O5          3.0021    3.0628    0.1318 O.2       1 <0>        -0.5329
     35 N4          1.0627    2.1852   -0.0760 N.am      1 <0>        -0.6486
     36 H1        -13.8963    5.1904    0.2035 H         1 <0>         0.0738
     37 H2        -14.9759    6.3005    0.9225 H         1 <0>         0.0932
     38 H3        -13.6814    6.8418   -0.1727 H         1 <0>         0.0954
     39 H4        -11.0825    6.1987    3.6436 H         1 <0>         0.1356
     40 H5         -9.5867    4.3433    4.1915 H         1 <0>         0.1325
     41 H6        -11.4353    1.9423    1.1643 H         1 <0>         0.1347
     42 H7        -12.9442    3.7861    0.6130 H         1 <0>         0.1350
     43 H8         -9.5704    1.0344    1.1502 H         1 <0>         0.0586
     44 H9        -10.9005    0.5574    2.2333 H         1 <0>         0.1000
     45 H10        -9.1202   -1.2188    1.9842 H         1 <0>         0.1032
     46 H11        -9.3501   -0.6828    3.6677 H         1 <0>         0.0800
     47 H12        -7.4396    1.1199    4.5287 H         1 <0>         0.0870
     48 H13        -6.2179    1.5132    3.2904 H         1 <0>         0.0943
     49 H14        -7.9163    2.5951    1.8900 H         1 <0>         0.0581
     50 H15        -8.0067    3.2879    3.5276 H         1 <0>         0.1002
     51 H16        -4.8899   -0.2251    3.2743 H         1 <0>         0.1161
     52 H17        -5.0912    0.7022    1.7683 H         1 <0>         0.1114
     53 H18        -2.9239   -2.2392    2.6895 H         1 <0>         0.0600
     54 H19        -4.6079   -2.7432    2.9695 H         1 <0>         0.0793
     55 H20        -3.7591   -3.2570    1.4917 H         1 <0>         0.0880
     56 H21        -3.3999    1.8438   -0.0363 H         1 <0>         0.1456
     57 H22        -1.2986    3.0935   -0.0364 H         1 <0>         0.1390
     58 H23        -1.2097   -1.8023   -0.0688 H         1 <0>         0.1452
     59 H24         0.9533   -1.8509    0.3436 H         1 <0>         0.0882
     60 H25         1.5406   -1.0045   -1.0871 H         1 <0>         0.0809
     61 H26         1.9956    0.0440    1.6846 H         1 <0>         0.0678
     62 H27         3.0617   -1.1541    0.9367 H         1 <0>         0.0898
     63 H28         4.0714    0.9290    0.5367 H         1 <0>         0.1123
     64 H29         3.3107    0.4686   -0.9989 H         1 <0>         0.1057
     65 H30         0.8098    3.1139   -0.1961 H         1 <0>         0.4014
@<TRIPOS>BOND
     1    1    2 1
     2    1   36 1
     3    1   37 1
     4    1   38 1
     5    2    3 2
     6    2    4 1
     7    4    9 ar
     8    4    5 ar
     9    5    6 ar
    10    5   39 1
    11    6    7 ar
    12    6   40 1
    13    7    8 ar
    14    7   10 1
    15    8    9 ar
    16    8   41 1
    17    9   42 1
    18   10   15 1
    19   10   11 1
    20   11   12 1
    21   11   43 1
    22   11   44 1
    23   12   13 1
    24   12   45 1
    25   12   46 1
    26   13   14 1
    27   13   16 am
    28   14   15 1
    29   14   47 1
    30   14   48 1
    31   15   49 1
    32   15   50 1
    33   16   17 2
    34   16   18 1
    35   18   19 1
    36   18   51 1
    37   18   52 1
    38   19   20 1
    39   19   21 1
    40   20   53 1
    41   20   54 1
    42   20   55 1
    43   21   22 2
    44   21   23 2
    45   21   24 1
    46   24   29 ar
    47   24   25 ar
    48   25   26 ar
    49   25   56 1
    50   26   27 ar
    51   26   57 1
    52   27   35 1
    53   27   28 ar
    54   28   29 ar
    55   28   30 1
    56   29   58 1
    57   30   31 1
    58   30   59 1
    59   30   60 1
    60   31   32 1
    61   31   61 1
    62   31   62 1
    63   32   33 1
    64   32   63 1
    65   32   64 1
    66   33   34 2
    67   33   35 am
    68   35   65 1
@<TRIPOS>MOLECULE
ZINC23908617
   63    66     0     0     0
SMALL
USER_CHARGES
3-[[[(3R)-1,1-dioxothiolan-3-yl]-ethyl-amino]methyl]-5,5-bis(4-methoxyphenyl)imidazolidine-2,4-dione
@<TRIPOS>ATOM
      1 C1         -0.9798    1.4861   -0.7941 C.3       1 <0>        -0.1477
      2 C2         -1.6562    2.1056    0.4304 C.3       1 <0>         0.0363
      3 N1         -1.4635    3.5617    0.4121 N.3       1 <0>        -0.5320
      4 C3         -0.1513    3.9261    0.9629 C.3       1 <0>         0.2794
      5 N2          0.8700    3.7917   -0.0788 N.am      1 <0>        -0.5676
      6 C4          0.9774    4.6105   -1.1438 C.2       1 <0>         0.5470
      7 O1          0.2739    5.5611   -1.4106 O.2       1 <0>        -0.4456
      8 C5          2.1615    4.0962   -1.9384 C.3       1 <0>         0.2139
      9 N3          2.6274    2.9387   -1.1553 N.am      1 <0>        -0.7292
     10 C6          1.8148    2.8445   -0.0873 C.2       1 <0>         0.7213
     11 O2          1.9246    1.9920    0.7721 O.2       1 <0>        -0.5399
     12 C7          1.7285    3.6647   -3.3158 C.ar      1 <0>        -0.1278
     13 C8          2.2522    2.5138   -3.8750 C.ar      1 <0>        -0.0527
     14 C9          1.8527    2.1131   -5.1353 C.ar      1 <0>        -0.2060
     15 C10         0.9336    2.8727   -5.8445 C.ar      1 <0>         0.1396
     16 C11         0.4138    4.0302   -5.2835 C.ar      1 <0>        -0.1455
     17 C12         0.8123    4.4235   -4.0206 C.ar      1 <0>        -0.0633
     18 O3          0.5428    2.4834   -7.0865 O.3       1 <0>        -0.3144
     19 C13         1.1193    1.2813   -7.6009 C.3       1 <0>         0.0221
     20 C14         3.2387    5.1464   -2.0244 C.ar      1 <0>        -0.1349
     21 C15         3.0118    6.3115   -2.7336 C.ar      1 <0>        -0.0476
     22 C16         3.9957    7.2782   -2.8092 C.ar      1 <0>        -0.2047
     23 C17         5.2164    7.0745   -2.1823 C.ar      1 <0>         0.1405
     24 C18         5.4436    5.9022   -1.4760 C.ar      1 <0>        -0.1509
     25 C19         4.4545    4.9410   -1.3987 C.ar      1 <0>        -0.0605
     26 O4          6.1877    8.0218   -2.2595 O.3       1 <0>        -0.3148
     27 C20         5.8838    9.2035   -3.0033 C.3       1 <0>         0.0213
     28 C21        -2.5454    4.2451    1.1334 C.3       1 <0>         0.0803
     29 H1         -2.2520    5.3039    1.1858 H         1 <0>         0.1166
     30 C22        -2.6955    3.6401    2.5391 C.3       1 <0>        -0.1681
     31 C23        -4.0185    4.1210    3.1822 C.3       1 <0>        -0.5812
     32 S1         -5.0927    4.4204    1.7196 S.o2      1 <0>         2.3840
     33 O5         -5.4298    5.7999    1.6684 O.2       1 <0>        -0.9301
     34 O6         -6.1271    3.4465    1.6975 O.2       1 <0>        -0.9343
     35 C24        -3.8891    4.0472    0.3754 C.3       1 <0>        -0.5759
     36 H2         -1.1242    0.3957   -0.7803 H         1 <0>         0.0617
     37 H3          0.0962    1.7138   -0.7731 H         1 <0>         0.0530
     38 H4         -1.4251    1.9034   -1.7093 H         1 <0>         0.0611
     39 H5         -2.7322    1.8779    0.4094 H         1 <0>         0.0823
     40 H6         -1.2109    1.6883    1.3456 H         1 <0>         0.0537
     41 H7         -0.1787    4.9671    1.3174 H         1 <0>         0.1053
     42 H8          0.0918    3.2590    1.8030 H         1 <0>         0.0927
     43 H9          3.4918    2.3527   -1.5010 H         1 <0>         0.4684
     44 H10         2.9710    1.9251   -3.3243 H         1 <0>         0.1238
     45 H11         2.2588    1.2116   -5.5699 H         1 <0>         0.1327
     46 H12        -0.3021    4.6230   -5.8334 H         1 <0>         0.1361
     47 H13         0.4077    5.3243   -3.5833 H         1 <0>         0.1434
     48 H14         0.7193    1.0839   -8.6064 H         1 <0>         0.1042
     49 H15         0.8701    0.4413   -6.9358 H         1 <0>         0.0580
     50 H16         2.2122    1.3933   -7.6565 H         1 <0>         0.0583
     51 H17         2.0629    6.4677   -3.2251 H         1 <0>         0.1326
     52 H18         3.8163    8.1900   -3.3596 H         1 <0>         0.1339
     53 H19         6.3930    5.7414   -0.9869 H         1 <0>         0.1356
     54 H20         4.6308    4.0283   -0.8487 H         1 <0>         0.1327
     55 H21         6.7502    9.8811   -2.9852 H         1 <0>         0.1044
     56 H22         5.0153    9.7067   -2.5534 H         1 <0>         0.0590
     57 H23         5.6521    8.9323   -4.0439 H         1 <0>         0.0590
     58 H24        -2.7057    2.5425    2.4667 H         1 <0>         0.0941
     59 H25        -1.8505    3.9583    3.1674 H         1 <0>         0.0980
     60 H26        -4.4109    3.3354    3.8446 H         1 <0>         0.1447
     61 H27        -3.8315    5.0339    3.7667 H         1 <0>         0.1435
     62 H28        -3.9393    4.7481   -0.4709 H         1 <0>         0.1536
     63 H29        -3.9501    3.0148    0.0006 H         1 <0>         0.1469
@<TRIPOS>BOND
     1    1    2 1
     2    1   36 1
     3    1   37 1
     4    1   38 1
     5    2    3 1
     6    2   39 1
     7    2   40 1
     8    3    4 1
     9    3   28 1
    10    4    5 1
    11    4   41 1
    12    4   42 1
    13    5   10 am
    14    5    6 am
    15    6    7 2
    16    6    8 1
    17    8    9 1
    18    8   12 1
    19    8   20 1
    20    9   10 am
    21    9   43 1
    22   10   11 2
    23   12   17 ar
    24   12   13 ar
    25   13   14 ar
    26   13   44 1
    27   14   15 ar
    28   14   45 1
    29   15   16 ar
    30   15   18 1
    31   16   17 ar
    32   16   46 1
    33   17   47 1
    34   18   19 1
    35   19   48 1
    36   19   49 1
    37   19   50 1
    38   20   25 ar
    39   20   21 ar
    40   21   22 ar
    41   21   51 1
    42   22   23 ar
    43   22   52 1
    44   23   24 ar
    45   23   26 1
    46   24   25 ar
    47   24   53 1
    48   25   54 1
    49   26   27 1
    50   27   55 1
    51   27   56 1
    52   27   57 1
    53   28   29 1
    54   28   35 1
    55   28   30 1
    56   30   31 1
    57   30   58 1
    58   30   59 1
    59   31   32 1
    60   31   60 1
    61   31   61 1
    62   32   33 2
    63   32   34 2
    64   32   35 1
    65   35   62 1
    66   35   63 1
@<TRIPOS>MOLECULE
ZINC03449528
   58    61     0     0     0
SMALL
USER_CHARGES

@<TRIPOS>ATOM
      1 C1         -0.5015    1.5121    0.3760 C.3       1 <0>        -0.1531
      2 C2         -0.4698   -0.0175    0.3615 C.3       1 <0>         0.0492
      3 O1          0.5029   -0.4827    1.2993 O.3       1 <0>        -0.2976
      4 C3          0.6579   -1.8277    1.4111 C.ar      1 <0>         0.1385
      5 C4         -0.1087   -2.6802    0.6277 C.ar      1 <0>        -0.1764
      6 C5          0.0434   -4.0449    0.7366 C.ar      1 <0>        -0.0729
      7 C6          0.9736   -4.5752    1.6389 C.ar      1 <0>        -0.1013
      8 C7          1.7463   -3.7144    2.4279 C.ar      1 <0>        -0.1325
      9 C8          1.5904   -2.3475    2.3080 C.ar      1 <0>         0.0970
     10 O2          2.3428   -1.5083    3.0689 O.3       1 <0>        -0.3021
     11 C9          3.2783   -2.1094    3.9664 C.3       1 <0>         0.0225
     12 C10         1.1378   -6.0296    1.7577 C.2       1 <0>         0.0877
     13 C11         0.5187   -6.8566    0.8775 C.2       1 <0>        -0.2236
     14 C12         0.4040   -8.3285    0.8899 C.2       1 <0>         0.5607
     15 O3          0.9011   -9.0010    1.7741 O.2       1 <0>        -0.4667
     16 N1         -0.2665   -8.8791   -0.1081 N.am      1 <0>        -0.5748
     17 C13        -0.8162   -8.1302   -1.0856 C.2       1 <0>         0.5266
     18 O4         -1.4532   -8.5006   -2.0534 O.2       1 <0>        -0.4145
     19 S1         -0.3887   -6.4626   -0.6115 S.3       1 <0>        -0.0297
     20 C14        -0.4152  -10.3359   -0.1529 C.3       1 <0>         0.0811
     21 C15        -1.6866  -10.7420    0.5952 C.3       1 <0>         0.1087
     22 N2         -1.8353  -12.1988    0.5503 N.am      1 <0>        -0.7214
     23 C16        -2.8905  -12.7872    1.1476 C.2       1 <0>         0.5278
     24 O5         -3.7169  -12.1106    1.7223 O.2       1 <0>        -0.4989
     25 C17        -3.0435  -14.2857    1.1014 C.3       1 <0>         0.0361
     26 H1         -3.0239  -14.6253    0.0659 H         1 <0>         0.1143
     27 C18        -1.9012  -14.9468    1.8846 C.3       1 <0>         0.0346
     28 O6         -2.0846  -16.3658    1.8324 O.3       1 <0>        -0.2988
     29 C19        -3.3396  -16.8298    2.0817 C.ar      1 <0>         0.0438
     30 C20        -3.5196  -18.1667    2.4042 C.ar      1 <0>        -0.1103
     31 C21        -4.7881  -18.6533    2.6567 C.ar      1 <0>        -0.1139
     32 C22        -5.8810  -17.8093    2.5888 C.ar      1 <0>        -0.1117
     33 C23        -5.7085  -16.4759    2.2695 C.ar      1 <0>        -0.1091
     34 C24        -4.4379  -15.9808    2.0160 C.ar      1 <0>         0.0505
     35 O7         -4.2831  -14.6634    1.7100 O.3       1 <0>        -0.2790
     36 H2          0.4804    1.8985    0.1028 H         1 <0>         0.0680
     37 H3         -1.2435    1.8669   -0.3394 H         1 <0>         0.0812
     38 H4         -0.7641    1.8607    1.3748 H         1 <0>         0.0680
     39 H5         -1.4518   -0.4038    0.6347 H         1 <0>         0.0662
     40 H6         -0.2073   -0.3660   -0.6373 H         1 <0>         0.0663
     41 H7         -0.8264   -2.2721   -0.0685 H         1 <0>         0.1456
     42 H8         -0.5547   -4.7055    0.1265 H         1 <0>         0.1382
     43 H9          2.4649   -4.1182    3.1257 H         1 <0>         0.1474
     44 H10         3.8114   -1.3302    4.5111 H         1 <0>         0.1046
     45 H11         2.7463   -2.7472    4.6723 H         1 <0>         0.0579
     46 H12         3.9908   -2.7094    3.4003 H         1 <0>         0.0577
     47 H13         1.7512   -6.4412    2.5456 H         1 <0>         0.1640
     48 H14        -0.4843  -10.6622   -1.1906 H         1 <0>         0.1078
     49 H15         0.4489  -10.8040    0.3184 H         1 <0>         0.1114
     50 H16        -1.6175  -10.4157    1.6329 H         1 <0>         0.0814
     51 H17        -2.5507  -10.2739    0.1238 H         1 <0>         0.0793
     52 H18        -1.1743  -12.7398    0.0906 H         1 <0>         0.4054
     53 H19        -0.9449  -14.6829    1.4330 H         1 <0>         0.1278
     54 H20        -1.9239  -14.6111    2.9213 H         1 <0>         0.0863
     55 H21        -2.6675  -18.8282    2.4577 H         1 <0>         0.1368
     56 H22        -4.9260  -19.6947    2.9078 H         1 <0>         0.1349
     57 H23        -6.8713  -18.1928    2.7853 H         1 <0>         0.1353
     58 H24        -6.5639  -15.8187    2.2170 H         1 <0>         0.1375
@<TRIPOS>BOND
     1    1    2 1
     2    1   36 1
     3    1   37 1
     4    1   38 1
     5    2    3 1
     6    2   39 1
     7    2   40 1
     8    3    4 1
     9    4    9 ar
    10    4    5 ar
    11    5    6 ar
    12    5   41 1
    13    6    7 ar
    14    6   42 1
    15    7    8 ar
    16    7   12 1
    17    8    9 ar
    18    8   43 1
    19    9   10 1
    20   10   11 1
    21   11   44 1
    22   11   45 1
    23   11   46 1
    24   12   13 2
    25   12   47 1
    26   13   19 1
    27   13   14 1
    28   14   15 2
    29   14   16 am
    30   16   17 am
    31   16   20 1
    32   17   18 2
    33   17   19 1
    34   20   21 1
    35   20   48 1
    36   20   49 1
    37   21   22 1
    38   21   50 1
    39   21   51 1
    40   22   23 am
    41   22   52 1
    42   23   24 2
    43   23   25 1
    44   25   26 1
    45   25   35 1
    46   25   27 1
    47   27   28 1
    48   27   53 1
    49   27   54 1
    50   28   29 1
    51   29   34 ar
    52   29   30 ar
    53   30   31 ar
    54   30   55 1
    55   31   32 ar
    56   31   56 1
    57   32   33 ar
    58   32   57 1
    59   33   34 ar
    60   33   58 1
    61   34   35 1
@<TRIPOS>MOLECULE
ZINC35225431
   43    46     0     0     0
SMALL
USER_CHARGES

@<TRIPOS>ATOM
      1 C1         -0.0167    1.3787    0.0096 C.ar      1 <0>        -0.1346
      2 C2          1.1696    2.0895    0.0021 C.ar      1 <0>        -0.0988
      3 C3          2.3774    1.4201   -0.0130 C.ar      1 <0>        -0.1258
      4 C4          2.3998    0.0311   -0.0206 C.ar      1 <0>         0.1637
      5 C5          1.2064   -0.6798   -0.0130 C.ar      1 <0>        -0.1500
      6 C6          0.0021   -0.0041    0.0020 C.ar      1 <0>        -0.0952
      7 N1          3.6216   -0.6502   -0.0363 N.am      1 <0>        -0.3989
      8 C7          3.7445   -1.9934   -0.0501 C.2       1 <0>         0.5010
      9 O1          2.8514   -2.8147   -0.0509 O.2       1 <0>        -0.4742
     10 C8          5.2376   -2.2575   -0.0648 C.3       1 <0>        -0.1577
     11 C9          5.8457   -0.8706   -0.0567 C.2       1 <0>         0.3022
     12 N2          4.8672   -0.0299   -0.0459 N.2       1 <0>        -0.2274
     13 N3          7.1966   -0.5629   -0.0648 N.am      1 <0>        -0.6188
     14 C10         7.5945    0.7248   -0.0559 C.2       1 <0>         0.5312
     15 O2          6.7701    1.6142   -0.0407 O.2       1 <0>        -0.4578
     16 C11         9.0639    1.0594   -0.0647 C.3       1 <0>        -0.1627
     17 S1          9.2738    2.8612   -0.0494 S.3       1 <0>         0.1335
     18 C12        11.0212    3.0869   -0.0615 C.2       1 <0>         0.2027
     19 N4         11.9324    2.1380   -0.0838 N.2       1 <0>        -0.3293
     20 N5         13.1115    2.6465   -0.0871 N.2       1 <0>        -0.0191
     21 N6         13.0461    3.9336   -0.0677 N.2       1 <0>        -0.0629
     22 N7         11.6816    4.2722   -0.0557 N.pl3     1 <0>        -0.3136
     23 C13        11.1231    5.5585   -0.0385 C.ar      1 <0>         0.1348
     24 C14         9.9345    5.8094   -0.7105 C.ar      1 <0>        -0.1064
     25 C15         9.3863    7.0770   -0.6917 C.ar      1 <0>        -0.0639
     26 C16        10.0209    8.0963   -0.0042 C.ar      1 <0>        -0.0794
     27 C17        11.2059    7.8488    0.6659 C.ar      1 <0>        -0.0700
     28 C18        11.7550    6.5816    0.6552 C.ar      1 <0>        -0.0858
     29 Br1         9.2679    9.8307    0.0190 Br        1 <0>        -0.0265
     30 H1         -0.9598    1.9047    0.0260 H         1 <0>         0.1260
     31 H2          1.1514    3.1693    0.0077 H         1 <0>         0.1295
     32 H3          3.3034    1.9757   -0.0192 H         1 <0>         0.1382
     33 H4          1.2203   -1.7597   -0.0193 H         1 <0>         0.1510
     34 H5         -0.9261   -0.5561    0.0082 H         1 <0>         0.1303
     35 H6          5.5375   -2.8128    0.8239 H         1 <0>         0.1483
     36 H7          5.5228   -2.7958   -0.9687 H         1 <0>         0.1484
     37 H8          7.8560   -1.2742   -0.0770 H         1 <0>         0.4335
     38 H9          9.5395    0.6307    0.8174 H         1 <0>         0.1411
     39 H10         9.5249    0.6476   -0.9625 H         1 <0>         0.1416
     40 H11         9.4391    5.0143   -1.2478 H         1 <0>         0.1489
     41 H12         8.4616    7.2727   -1.2142 H         1 <0>         0.1530
     42 H13        11.6995    8.6463    1.2015 H         1 <0>         0.1512
     43 H14        12.6776    6.3879    1.1821 H         1 <0>         0.1490
@<TRIPOS>BOND
     1    1    6 ar
     2    1    2 ar
     3    1   30 1
     4    2    3 ar
     5    2   31 1
     6    3    4 ar
     7    3   32 1
     8    4    5 ar
     9    4    7 1
    10    5    6 ar
    11    5   33 1
    12    6   34 1
    13    7   12 1
    14    7    8 am
    15    8    9 2
    16    8   10 1
    17   10   11 1
    18   10   35 1
    19   10   36 1
    20   11   12 2
    21   11   13 1
    22   13   14 am
    23   13   37 1
    24   14   15 2
    25   14   16 1
    26   16   17 1
    27   16   38 1
    28   16   39 1
    29   17   18 1
    30   18   22 1
    31   18   19 2
    32   19   20 1
    33   20   21 2
    34   21   22 1
    35   22   23 1
    36   23   28 ar
    37   23   24 ar
    38   24   25 ar
    39   24   40 1
    40   25   26 ar
    41   25   41 1
    42   26   27 ar
    43   26   29 1
    44   27   28 ar
    45   27   42 1
    46   28   43 1
@<TRIPOS>MOLECULE
ZINC08910271
   50    54     0     0     0
SMALL
USER_CHARGES
N-[7-(3-chlorophenyl)-3,3-dioxo-3$l^{6}-thia-6,7-diazabicyclo[3.3.0]octa-5,8-dien-8-yl]-3-(1,3-dioxoisoindolin-2-yl)-propanamide
@<TRIPOS>ATOM
      1 C1          5.4783   -2.2955   -3.6972 C.ar      1 <0>        -0.0935
      2 C2          5.1876   -3.5402   -3.1709 C.ar      1 <0>        -0.0932
      3 C3          4.5678   -3.6538   -1.9363 C.ar      1 <0>        -0.0426
      4 C4          4.2377   -2.5110   -1.2256 C.ar      1 <0>        -0.1420
      5 C5          4.5341   -1.2418   -1.7623 C.ar      1 <0>        -0.1426
      6 C6          5.1540   -1.1437   -2.9976 C.ar      1 <0>        -0.0428
      7 C7          4.0574   -0.2599   -0.7655 C.2       1 <0>         0.5752
      8 O1          4.1349    0.9478   -0.8670 O.2       1 <0>        -0.4572
      9 N1          3.5234   -0.9279    0.2729 N.am      1 <0>        -0.5784
     10 C8          3.5954   -2.2575    0.0813 C.2       1 <0>         0.5743
     11 O2          3.1971   -3.1074    0.8521 O.2       1 <0>        -0.4551
     12 C9          2.9453   -0.2914    1.4590 C.3       1 <0>         0.1258
     13 C10         1.4539   -0.0405    1.2273 C.3       1 <0>        -0.1563
     14 C11         0.8592    0.6142    2.4475 C.2       1 <0>         0.5280
     15 O3          1.5593    0.8564    3.4079 O.2       1 <0>        -0.4873
     16 N2         -0.4507    0.9308    2.4715 N.am      1 <0>        -0.6523
     17 C12        -1.0203    1.4540    3.6317 C.2       1 <0>         0.3473
     18 C13        -0.5935    1.2278    4.9203 C.2       1 <0>        -0.2333
     19 C14        -1.4272    1.9322    5.7727 C.2       1 <0>         0.0897
     20 N3         -2.3362    2.5600    5.0406 N.2       1 <0>        -0.2434
     21 N4         -2.0989    2.2734    3.6952 N.pl3     1 <0>        -0.3176
     22 C15        -2.8426    2.7469    2.6057 C.ar      1 <0>         0.1548
     23 C16        -2.1983    3.1204    1.4335 C.ar      1 <0>        -0.1294
     24 C17        -2.9336    3.5826    0.3597 C.ar      1 <0>        -0.0805
     25 C18        -4.3095    3.6835    0.4538 C.ar      1 <0>        -0.1028
     26 C19        -4.9544    3.3167    1.6219 C.ar      1 <0>        -0.0160
     27 C20        -4.2237    2.8488    2.6983 C.ar      1 <0>        -0.0943
     28 Cl1        -6.6819    3.4448    1.7360 Cl        1 <0>        -0.0465
     29 C21        -1.1293    1.8267    7.2673 C.3       1 <0>        -0.4982
     30 S1         -0.0132    0.3624    7.3248 S.o2      1 <0>         2.3833
     31 O4         -0.7801   -0.8141    7.5415 O.2       1 <0>        -0.9212
     32 O5          1.0924    0.6497    8.1701 O.2       1 <0>        -0.9220
     33 C22         0.5303    0.4216    5.5681 C.3       1 <0>        -0.4628
     34 H1          5.9618   -2.2200   -4.6600 H         1 <0>         0.1445
     35 H2          5.4455   -4.4304   -3.7254 H         1 <0>         0.1446
     36 H3          4.3433   -4.6289   -1.5299 H         1 <0>         0.1440
     37 H4          5.3831   -0.1738   -3.4138 H         1 <0>         0.1437
     38 H5          3.4489    0.6573    1.6441 H         1 <0>         0.1108
     39 H6          3.0740   -0.9454    2.3215 H         1 <0>         0.1114
     40 H7          1.3251    0.6135    0.3649 H         1 <0>         0.1101
     41 H8          0.9503   -0.9893    1.0423 H         1 <0>         0.1117
     42 H9         -0.9971    0.7946    1.6817 H         1 <0>         0.4184
     43 H10        -1.1234    3.0459    1.3604 H         1 <0>         0.1364
     44 H11        -2.4329    3.8699   -0.5531 H         1 <0>         0.1488
     45 H12        -4.8818    4.0494   -0.3858 H         1 <0>         0.1460
     46 H13        -4.7270    2.5633    3.6102 H         1 <0>         0.1492
     47 H14        -0.6277    2.7242    7.6293 H         1 <0>         0.1611
     48 H15        -2.0406    1.6358    7.8340 H         1 <0>         0.1542
     49 H16         0.5862   -0.5806    5.1433 H         1 <0>         0.1367
     50 H17         1.4856    0.9378    5.4727 H         1 <0>         0.1618
@<TRIPOS>BOND
     1    1    6 ar
     2    1    2 ar
     3    1   34 1
     4    2    3 ar
     5    2   35 1
     6    3    4 ar
     7    3   36 1
     8    4   10 1
     9    4    5 ar
    10    5    6 ar
    11    5    7 1
    12    6   37 1
    13    7    8 2
    14    7    9 am
    15    9   10 am
    16    9   12 1
    17   10   11 2
    18   12   13 1
    19   12   38 1
    20   12   39 1
    21   13   14 1
    22   13   40 1
    23   13   41 1
    24   14   15 2
    25   14   16 am
    26   16   17 1
    27   16   42 1
    28   17   21 1
    29   17   18 2
    30   18   33 1
    31   18   19 1
    32   19   20 2
    33   19   29 1
    34   20   21 1
    35   21   22 1
    36   22   27 ar
    37   22   23 ar
    38   23   24 ar
    39   23   43 1
    40   24   25 ar
    41   24   44 1
    42   25   26 ar
    43   25   45 1
    44   26   27 ar
    45   26   28 1
    46   27   46 1
    47   29   30 1
    48   29   47 1
    49   29   48 1
    50   30   31 2
    51   30   32 2
    52   30   33 1
    53   33   49 1
    54   33   50 1
@<TRIPOS>MOLECULE
ZINC12757160
   60    63     0     0     0
SMALL
USER_CHARGES
[(1R)-2-[[(3S)-1,1-dioxothiolan-3-yl]amino]-1-methyl-2-oxo-ethyl] 1-(5,6-dimethylthieno[3,2-e]pyrimidin-4-yl)piperidine-4-carboxylate
@<TRIPOS>ATOM
      1 C1          4.5960    0.4426    0.2407 C.3       1 <0>        -0.1032
      2 C2          5.1809   -0.1657   -1.0079 C.2       1 <0>        -0.0857
      3 C3          6.5050   -0.3483   -1.1175 C.2       1 <0>        -0.1344
      4 S1          6.6926   -1.0783   -2.7333 S.3       1 <0>         0.1032
      5 C4          4.9874   -1.1184   -3.2178 C.ar      1 <0>         0.1215
      6 C5          4.3176   -0.5559   -2.1088 C.ar      1 <0>        -0.1645
      7 C6          2.9032   -0.4724   -2.2295 C.ar      1 <0>         0.4007
      8 N1          2.3239   -0.9018   -3.3390 N.ar      1 <0>        -0.5584
      9 C7          3.0157   -1.4127   -4.3415 C.ar      1 <0>         0.3315
     10 N2          4.3290   -1.5217   -4.2863 N.ar      1 <0>        -0.4864
     11 N3          2.1429    0.0564   -1.2020 N.pl3     1 <0>        -0.4819
     12 C8          0.8706   -0.6638   -1.0644 C.3       1 <0>         0.0605
     13 C9          0.1227   -0.1501    0.1680 C.3       1 <0>        -0.1014
     14 C10        -0.1334    1.3517    0.0143 C.3       1 <0>        -0.0795
     15 C11         1.2039    2.0728   -0.1758 C.3       1 <0>        -0.1079
     16 C12         1.9204    1.4946   -1.3983 C.3       1 <0>         0.0644
     17 C13        -0.8165    1.8753    1.2513 C.2       1 <0>         0.4700
     18 O1         -1.0728    1.1252    2.1632 O.2       1 <0>        -0.4997
     19 O2         -1.1402    3.1749    1.3401 O.3       1 <0>        -0.3262
     20 C14        -1.7962    3.6090    2.5605 C.3       1 <0>         0.0695
     21 H1         -1.4664    2.9858    3.3917 H         1 <0>         0.1138
     22 C15        -3.3122    3.4817    2.3977 C.3       1 <0>        -0.1674
     23 C16        -1.4398    5.0467    2.8384 C.2       1 <0>         0.5206
     24 O3         -0.7801    5.6737    2.0368 O.2       1 <0>        -0.5071
     25 N4         -1.8543    5.6356    3.9776 N.am      1 <0>        -0.7172
     26 C17        -1.5079    7.0332    4.2477 C.3       1 <0>         0.1481
     27 H2         -0.5191    7.2459    3.8412 H         1 <0>         0.1152
     28 C18        -2.5430    7.9539    3.5804 C.3       1 <0>        -0.1470
     29 C19        -2.3394    9.3931    4.1334 C.3       1 <0>        -0.5692
     30 S2         -2.0310    9.0285    5.9130 S.o2      1 <0>         2.3779
     31 O4         -3.2643    9.0834    6.6166 O.2       1 <0>        -0.9282
     32 O5         -0.9339    9.8117    6.3629 O.2       1 <0>        -0.9295
     33 C20        -1.4974    7.2738    5.7766 C.3       1 <0>        -0.6002
     34 C21         7.5788   -0.0161   -0.1136 C.3       1 <0>        -0.0704
     35 H3          4.4589    1.5138    0.0932 H         1 <0>         0.0685
     36 H4          3.6329   -0.0210    0.4539 H         1 <0>         0.0916
     37 H5          5.2733    0.2749    1.0782 H         1 <0>         0.0641
     38 H6          2.4945   -1.7488   -5.2257 H         1 <0>         0.2087
     39 H7          1.0671   -1.7300   -0.9517 H         1 <0>         0.0845
     40 H8          0.2620   -0.4987   -1.9535 H         1 <0>         0.0640
     41 H9          0.7249   -0.3272    1.0591 H         1 <0>         0.0849
     42 H10        -0.8287   -0.6739    0.2609 H         1 <0>         0.0850
     43 H11        -0.7679    1.5259   -0.8547 H         1 <0>         0.1128
     44 H12         1.0250    3.1371   -0.3285 H         1 <0>         0.0937
     45 H13         1.8231    1.9306    0.7099 H         1 <0>         0.0827
     46 H14         2.8795    1.9960   -1.5280 H         1 <0>         0.0874
     47 H15         1.3067    1.6494   -2.2857 H         1 <0>         0.0564
     48 H16        -3.5700    2.4418    2.1968 H         1 <0>         0.0788
     49 H17        -3.8046    3.8075    3.3139 H         1 <0>         0.0828
     50 H18        -3.6420    4.1049    1.5666 H         1 <0>         0.0761
     51 H19        -2.3820    5.1341    4.6187 H         1 <0>         0.4079
     52 H20        -2.3959    7.9514    2.5004 H         1 <0>         0.1085
     53 H21        -3.5494    7.6075    3.8154 H         1 <0>         0.0939
     54 H22        -3.2387    9.9954    4.0046 H         1 <0>         0.1467
     55 H23        -1.4759    9.8743    3.6743 H         1 <0>         0.1440
     56 H24        -2.2068    6.6142    6.2765 H         1 <0>         0.1467
     57 H25        -0.4941    7.1423    6.1817 H         1 <0>         0.1509
     58 H26         8.5524   -0.2928   -0.5180 H         1 <0>         0.0767
     59 H27         7.5626    1.0536    0.0950 H         1 <0>         0.0853
     60 H28         7.3978   -0.5689    0.8083 H         1 <0>         0.0858
@<TRIPOS>BOND
     1    1    2 1
     2    1   35 1
     3    1   36 1
     4    1   37 1
     5    2    6 1
     6    2    3 2
     7    3    4 1
     8    3   34 1
     9    4    5 1
    10    5   10 ar
    11    5    6 ar
    12    6    7 ar
    13    7    8 ar
    14    7   11 1
    15    8    9 ar
    16    9   10 ar
    17    9   38 1
    18   11   16 1
    19   11   12 1
    20   12   13 1
    21   12   39 1
    22   12   40 1
    23   13   14 1
    24   13   41 1
    25   13   42 1
    26   14   15 1
    27   14   17 1
    28   14   43 1
    29   15   16 1
    30   15   44 1
    31   15   45 1
    32   16   46 1
    33   16   47 1
    34   17   18 2
    35   17   19 1
    36   19   20 1
    37   20   21 1
    38   20   22 1
    39   20   23 1
    40   22   48 1
    41   22   49 1
    42   22   50 1
    43   23   24 2
    44   23   25 am
    45   25   26 1
    46   25   51 1
    47   26   27 1
    48   26   33 1
    49   26   28 1
    50   28   29 1
    51   28   52 1
    52   28   53 1
    53   29   30 1
    54   29   54 1
    55   29   55 1
    56   30   31 2
    57   30   32 2
    58   30   33 1
    59   33   56 1
    60   33   57 1
    61   34   58 1
    62   34   59 1
    63   34   60 1
@<TRIPOS>MOLECULE
ZINC24627932
   62    66     0     0     0
SMALL
USER_CHARGES
1-[4-[(3R)-2,3-dihydro-1,4-benzodioxine-3-carbonyl]piperazin-1-yl]-3-[3-(m-tolyl)-5-thioxo-1H-1,2,4-triazol-4-yl]propan-1-one
@<TRIPOS>ATOM
      1 C1          2.1344    1.0365   -1.2542 C.3       1 <0>        -0.1218
      2 C2          1.0095    1.7791   -0.5803 C.ar      1 <0>        -0.0799
      3 C3         -0.0066    1.0758    0.0422 C.ar      1 <0>        -0.0908
      4 C4         -1.0454    1.7500    0.6584 C.ar      1 <0>        -0.1086
      5 C5         -1.0687    3.1298    0.6649 C.ar      1 <0>        -0.1114
      6 C6         -0.0471    3.8445    0.0395 C.ar      1 <0>        -0.0410
      7 C7          0.9952    3.1585   -0.5849 C.ar      1 <0>        -0.0678
      8 C8         -0.0688    5.3242    0.0378 C.2       1 <0>         0.3212
      9 N1          0.9605    6.1004   -0.1547 N.2       1 <0>        -0.2756
     10 N2          0.5220    7.4294   -0.0796 N.pl3     1 <0>        -0.4796
     11 H1          1.2382    8.2533   -0.2147 H         1 <0>         0.5061
     12 C9         -0.8044    7.4060    0.1644 C.2       1 <0>         0.4829
     13 S1         -1.8229    8.7700    0.3461 S.2       1 <0>        -0.5748
     14 N3         -1.1841    6.1145    0.2340 N.pl3     1 <0>        -0.4900
     15 C10        -2.5455    5.6322    0.4793 C.3       1 <0>         0.1188
     16 C11        -2.8041    5.5795    1.9863 C.3       1 <0>        -0.1699
     17 C12        -4.2045    5.0834    2.2387 C.2       1 <0>         0.5292
     18 O1         -4.9248    4.7998    1.3051 O.2       1 <0>        -0.5262
     19 N4         -4.6565    4.9548    3.5019 N.am      1 <0>        -0.6115
     20 C13        -3.7928    5.2889    4.6430 C.3       1 <0>         0.0879
     21 C14        -4.5207    6.3252    5.5158 C.3       1 <0>         0.0761
     22 N5         -5.8841    5.8426    5.7769 N.am      1 <0>        -0.6080
     23 C15        -6.7460    5.5032    4.6359 C.3       1 <0>         0.0977
     24 C16        -6.0199    4.4722    3.7630 C.3       1 <0>         0.0967
     25 C17        -6.3361    5.7140    7.0401 C.2       1 <0>         0.5282
     26 O2         -7.4633    5.3150    7.2432 O.2       1 <0>        -0.4995
     27 C18        -5.4409    6.0658    8.2002 C.3       1 <0>         0.0337
     28 H2         -4.5224    5.4624    8.1533 H         1 <0>         0.1129
     29 C19        -5.1540    7.5735    8.1938 C.3       1 <0>         0.0281
     30 O3         -4.3142    7.8745    9.3135 O.3       1 <0>        -0.2973
     31 C20        -4.6699    7.3291   10.5087 C.ar      1 <0>         0.0429
     32 C21        -4.1371    7.8483   11.6794 C.ar      1 <0>        -0.1096
     33 C22        -4.4857    7.3028   12.9003 C.ar      1 <0>        -0.1141
     34 C23        -5.3664    6.2387   12.9585 C.ar      1 <0>        -0.1112
     35 C24        -5.9020    5.7176   11.7960 C.ar      1 <0>        -0.1097
     36 C25        -5.5569    6.2609   10.5673 C.ar      1 <0>         0.0514
     37 O4         -6.0949    5.7391    9.4312 O.3       1 <0>        -0.2825
     38 H3          1.9747   -0.0466   -1.1471 H         1 <0>         0.0716
     39 H4          3.0899    1.3144   -0.7854 H         1 <0>         0.0760
     40 H5          2.1596    1.2996   -2.3220 H         1 <0>         0.0757
     41 H6          0.0090   -0.0041    0.0431 H         1 <0>         0.1330
     42 H7         -1.8378    1.1955    1.1391 H         1 <0>         0.1350
     43 H8         -1.8782    3.6551    1.1499 H         1 <0>         0.1335
     44 H9          1.7888    3.7063   -1.0712 H         1 <0>         0.1373
     45 H10        -3.2671    6.3151    0.0071 H         1 <0>         0.1291
     46 H11        -2.6603    4.6250    0.0521 H         1 <0>         0.1201
     47 H12        -2.0825    4.8966    2.4585 H         1 <0>         0.1033
     48 H13        -2.6894    6.5866    2.4135 H         1 <0>         0.1202
     49 H14        -3.5904    4.3797    5.2282 H         1 <0>         0.0835
     50 H15        -2.8442    5.7068    4.2749 H         1 <0>         0.1029
     51 H16        -3.9792    6.4502    6.4651 H         1 <0>         0.1024
     52 H17        -4.5592    7.2885    4.9861 H         1 <0>         0.0915
     53 H18        -7.6927    5.0813    5.0043 H         1 <0>         0.1121
     54 H19        -6.9526    6.4108    4.0497 H         1 <0>         0.0825
     55 H20        -6.5535    4.3472    2.8093 H         1 <0>         0.1135
     56 H21        -5.9729    3.5057    4.2862 H         1 <0>         0.0782
     57 H22        -4.6464    7.8462    7.2568 H         1 <0>         0.1322
     58 H23        -6.1012    8.1273    8.2723 H         1 <0>         0.0891
     59 H24        -3.4488    8.6795   11.6367 H         1 <0>         0.1370
     60 H25        -4.0693    7.7083   13.8106 H         1 <0>         0.1349
     61 H26        -5.6363    5.8139   13.9140 H         1 <0>         0.1352
     62 H27        -6.5902    4.8867   11.8442 H         1 <0>         0.1373
@<TRIPOS>BOND
     1    1    2 1
     2    1   38 1
     3    1   39 1
     4    1   40 1
     5    2    7 ar
     6    2    3 ar
     7    3    4 ar
     8    3   41 1
     9    4    5 ar
    10    4   42 1
    11    5    6 ar
    12    5   43 1
    13    6    7 ar
    14    6    8 1
    15    7   44 1
    16    8   14 1
    17    8    9 2
    18    9   10 1
    19   10   11 1
    20   10   12 1
    21   12   13 2
    22   12   14 1
    23   14   15 1
    24   15   16 1
    25   15   45 1
    26   15   46 1
    27   16   17 1
    28   16   47 1
    29   16   48 1
    30   17   18 2
    31   17   19 am
    32   19   24 1
    33   19   20 1
    34   20   21 1
    35   20   49 1
    36   20   50 1
    37   21   22 1
    38   21   51 1
    39   21   52 1
    40   22   23 1
    41   22   25 am
    42   23   24 1
    43   23   53 1
    44   23   54 1
    45   24   55 1
    46   24   56 1
    47   25   26 2
    48   25   27 1
    49   27   28 1
    50   27   37 1
    51   27   29 1
    52   29   30 1
    53   29   57 1
    54   29   58 1
    55   30   31 1
    56   31   36 ar
    57   31   32 ar
    58   32   33 ar
    59   32   59 1
    60   33   34 ar
    61   33   60 1
    62   34   35 ar
    63   34   61 1
    64   35   36 ar
    65   35   62 1
    66   36   37 1
@<TRIPOS>MOLECULE
ZINC35988211
   66    70     0     0     0
SMALL
USER_CHARGES

@<TRIPOS>ATOM
      1 C1         -1.3094    2.1188    2.7184 C.3       1 <0>        -0.1196
      2 C2         -0.9994    0.7360    2.2056 C.ar      1 <0>        -0.0638
      3 C3         -0.1290   -0.0795    2.9068 C.ar      1 <0>        -0.1304
      4 C4          0.1590   -1.3464    2.4429 C.ar      1 <0>        -0.0860
      5 C5         -0.4298   -1.8048    1.2633 C.ar      1 <0>        -0.1341
      6 C6         -1.3069   -0.9770    0.5608 C.ar      1 <0>        -0.0616
      7 C7         -1.5908    0.2856    1.0387 C.ar      1 <0>        -0.1281
      8 C8         -0.1252   -3.1612    0.7600 C.2       1 <0>         0.5593
      9 O1         -0.0471   -3.3622   -0.4363 O.2       1 <0>        -0.5438
     10 N1          0.0657   -4.1748    1.6275 N.am      1 <0>        -0.5758
     11 C9         -0.1389   -3.9752    3.0687 C.3       1 <0>         0.0702
     12 C10        -1.1205   -5.0352    3.5788 C.3       1 <0>        -0.1349
     13 C11        -0.6084   -6.4250    3.1982 C.3       1 <0>         0.3295
     14 C12        -0.5054   -6.5467    1.6772 C.3       1 <0>        -0.1512
     15 C13         0.4764   -5.5020    1.1494 C.3       1 <0>         0.0957
     16 N2          0.7137   -6.6479    3.8028 N.am      1 <0>        -0.6048
     17 C14         0.5734   -7.8410    4.6671 C.3       1 <0>         0.0791
     18 H1          0.4024   -7.5494    5.7034 H         1 <0>         0.1176
     19 C15        -0.6772   -8.5430    4.0808 C.3       1 <0>         0.0526
     20 O2         -1.5106   -7.4236    3.7000 O.3       1 <0>        -0.3455
     21 C16         1.7882   -8.7260    4.5571 C.2       1 <0>         0.5254
     22 O3          2.6126   -8.5195    3.6919 O.2       1 <0>        -0.5162
     23 N3          1.9585   -9.7471    5.4203 N.am      1 <0>        -0.7167
     24 C17         3.1394  -10.6074    5.3133 C.3       1 <0>         0.1155
     25 C18         3.0897  -11.6796    6.4036 C.3       1 <0>         0.0675
     26 H2          2.9740  -11.2090    7.3799 H         1 <0>         0.0887
     27 C19         4.3873  -12.5156    6.3757 C.3       1 <0>        -0.1487
     28 C20         3.8610  -13.9504    6.6515 C.3       1 <0>        -0.1565
     29 C21         2.4870  -13.9022    5.9370 C.3       1 <0>         0.0490
     30 O4          1.9940  -12.5696    6.1603 O.3       1 <0>        -0.3760
     31 C22         1.8276   -5.9144    3.6086 C.2       1 <0>         0.6072
     32 O5          1.8080   -4.9694    2.8420 O.2       1 <0>        -0.4585
     33 C23         3.0634   -6.2550    4.3211 C.2       1 <0>        -0.0398
     34 C24         4.2892   -5.6890    4.1173 C.2       1 <0>        -0.1232
     35 C25         5.1748   -6.3118    5.0106 C.2       1 <0>        -0.2169
     36 C26         4.4599   -7.2192    5.7116 C.2       1 <0>        -0.0099
     37 O6          3.1871   -7.1785    5.2969 O.3       1 <0>        -0.1635
     38 H3         -2.1698    2.0743    3.3861 H         1 <0>         0.0741
     39 H4         -0.4476    2.5065    3.2617 H         1 <0>         0.0690
     40 H5         -1.5350    2.7757    1.8784 H         1 <0>         0.0691
     41 H6          0.3261    0.2766    3.8192 H         1 <0>         0.1276
     42 H7          0.8388   -1.9819    2.9909 H         1 <0>         0.1354
     43 H8         -1.7657   -1.3258   -0.3526 H         1 <0>         0.1308
     44 H9         -2.2727    0.9255    0.4984 H         1 <0>         0.1285
     45 H10         0.8126   -4.0772    3.5905 H         1 <0>         0.1227
     46 H11        -0.5502   -2.9813    3.2452 H         1 <0>         0.0915
     47 H12        -1.2032   -4.9625    4.6632 H         1 <0>         0.0864
     48 H13        -2.0991   -4.8720    3.1273 H         1 <0>         0.0867
     49 H14        -0.1527   -7.5442    1.4152 H         1 <0>         0.0806
     50 H15        -1.4859   -6.3786    1.2317 H         1 <0>         0.0852
     51 H16         0.4713   -5.5156    0.0595 H         1 <0>         0.0844
     52 H17         1.4780   -5.7283    1.5151 H         1 <0>         0.1167
     53 H18        -0.4124   -9.1430    3.2102 H         1 <0>         0.0817
     54 H19        -1.1698   -9.1531    4.8379 H         1 <0>         0.1226
     55 H20         1.2992   -9.9122    6.1123 H         1 <0>         0.4045
     56 H21         3.1531  -11.0855    4.3339 H         1 <0>         0.0729
     57 H22         4.0398  -10.0055    5.4364 H         1 <0>         0.0772
     58 H23         4.8643  -12.4588    5.3972 H         1 <0>         0.0825
     59 H24         5.0718  -12.1957    7.1613 H         1 <0>         0.0875
     60 H25         4.5115  -14.7007    6.2019 H         1 <0>         0.0866
     61 H26         3.7419  -14.1264    7.7206 H         1 <0>         0.0809
     62 H27         2.6088  -14.0874    4.8698 H         1 <0>         0.0624
     63 H28         1.8076  -14.6341    6.3737 H         1 <0>         0.0885
     64 H29         4.5305   -4.9125    3.4065 H         1 <0>         0.1571
     65 H30         6.2294   -6.1049    5.1173 H         1 <0>         0.1538
     66 H31         4.8499   -7.8680    6.4819 H         1 <0>         0.2014
@<TRIPOS>BOND
     1    1    2 1
     2    1   38 1
     3    1   39 1
     4    1   40 1
     5    2    7 ar
     6    2    3 ar
     7    3    4 ar
     8    3   41 1
     9    4    5 ar
    10    4   42 1
    11    5    6 ar
    12    5    8 1
    13    6    7 ar
    14    6   43 1
    15    7   44 1
    16    8    9 2
    17    8   10 am
    18   10   15 1
    19   10   11 1
    20   11   12 1
    21   11   45 1
    22   11   46 1
    23   12   13 1
    24   12   47 1
    25   12   48 1
    26   13   20 1
    27   13   14 1
    28   13   16 1
    29   14   15 1
    30   14   49 1
    31   14   50 1
    32   15   51 1
    33   15   52 1
    34   16   17 1
    35   16   31 am
    36   17   18 1
    37   17   19 1
    38   17   21 1
    39   19   20 1
    40   19   53 1
    41   19   54 1
    42   21   22 2
    43   21   23 am
    44   23   24 1
    45   23   55 1
    46   24   25 1
    47   24   56 1
    48   24   57 1
    49   25   26 1
    50   25   30 1
    51   25   27 1
    52   27   28 1
    53   27   58 1
    54   27   59 1
    55   28   29 1
    56   28   60 1
    57   28   61 1
    58   29   30 1
    59   29   62 1
    60   29   63 1
    61   31   32 2
    62   31   33 1
    63   33   37 1
    64   33   34 2
    65   34   35 1
    66   34   64 1
    67   35   36 2
    68   35   65 1
    69   36   37 1
    70   36   66 1
@<TRIPOS>MOLECULE
ZINC39470023
   61    63     0     0     0
SMALL
USER_CHARGES

@<TRIPOS>ATOM
      1 C1          0.7996    0.9494   -0.3496 C.3       1 <0>        -0.1553
      2 C2          0.7871   -0.5649   -0.1317 C.3       1 <0>         0.0562
      3 O1          1.2636   -0.8610    1.1826 O.3       1 <0>        -0.3084
      4 C3          1.3160   -2.1713    1.5392 C.2       1 <0>         0.1468
      5 C4          0.9369   -3.1200    0.6740 C.2       1 <0>        -0.2632
      6 C5          1.0200   -4.5611    1.0970 C.3       1 <0>        -0.0324
      7 H1          0.1423   -4.8173    1.6904 H         1 <0>         0.0827
      8 C6          1.1090   -5.4915   -0.1085 C.3       1 <0>        -0.0966
      9 C7          1.2174   -6.9455    0.3715 C.3       1 <0>        -0.0162
     10 H2          0.3065   -7.2160    0.9055 H         1 <0>         0.0752
     11 C8          1.3524   -7.8279   -0.8758 C.3       1 <0>         0.0963
     12 O2          1.3916   -9.2115   -0.4831 O.3       1 <0>        -0.5970
     13 P1          2.4463   -9.6423    0.6783 P.3       1 <0>         1.5017
     14 O3          3.8037   -9.7930    0.1081 O.2       1 <0>        -0.7722
     15 N1          2.4190   -8.4053    1.7712 N.pl3     1 <0>        -0.9102
     16 N2          2.3675   -7.1231    1.2593 N.3       1 <0>        -0.2526
     17 C9          2.3429   -6.2046    2.4126 C.3       1 <0>         0.0320
     18 C10         2.2850   -4.7576    1.9424 C.3       1 <0>        -0.0802
     19 H3          3.1651   -4.5693    1.3275 H         1 <0>         0.1193
     20 C11         2.2620   -3.7856    3.0894 C.2       1 <0>         0.0394
     21 C12         1.7971   -2.5567    2.8807 C.2       1 <0>        -0.6427
     22 S1          1.7504   -1.3955    4.2050 S.o2      1 <0>         2.4897
     23 O4          2.2908   -2.0935    5.3186 O.2       1 <0>        -0.9386
     24 O5          2.3950   -0.2367    3.6941 O.2       1 <0>        -0.9154
     25 C13        -0.0129   -1.0632    4.4718 C.3       1 <0>        -0.5641
     26 C14        -0.7245   -2.3625    4.8543 C.3       1 <0>        -0.1440
     27 C15        -0.1745   -0.0421    5.5996 C.3       1 <0>        -0.1460
     28 S2          1.8310  -11.4521    1.5950 S.o2      1 <0>         1.8485
     29 O6          2.8703  -11.7658    2.5119 O.2       1 <0>        -0.8612
     30 O7          0.5116  -11.1949    2.0557 O.2       1 <0>        -0.8782
     31 C16         1.7969  -12.6682    0.2493 C.3       1 <0>        -0.4925
     32 C17         1.2428  -13.9942    0.7742 C.3       1 <0>        -0.1416
     33 C18         0.9030  -12.1535   -0.8807 C.3       1 <0>        -0.1633
     34 H4          1.8173    1.3240   -0.2390 H         1 <0>         0.0707
     35 H5          0.4362    1.1753   -1.3521 H         1 <0>         0.0799
     36 H6          0.1543    1.4279    0.3872 H         1 <0>         0.0675
     37 H7         -0.2305   -0.9395   -0.2422 H         1 <0>         0.0632
     38 H8          1.4324   -1.0434   -0.8684 H         1 <0>         0.0648
     39 H9          0.5776   -2.8555   -0.3096 H         1 <0>         0.1340
     40 H10         0.2152   -5.3774   -0.7220 H         1 <0>         0.0917
     41 H11         1.9892   -5.2375   -0.6990 H         1 <0>         0.0882
     42 H12         0.4991   -7.6608   -1.5331 H         1 <0>         0.1248
     43 H13         2.2721   -7.5736   -1.4028 H         1 <0>         0.0885
     44 H14         2.4464   -8.5764    2.7256 H         1 <0>         0.4105
     45 H15         1.4527   -6.3981    3.0111 H         1 <0>         0.0594
     46 H16         3.2313   -6.3657    3.0232 H         1 <0>         0.1074
     47 H17         2.6211   -4.0791    4.0648 H         1 <0>         0.1613
     48 H18        -0.4502   -0.6655    3.5560 H         1 <0>         0.1409
     49 H19        -0.6716   -3.0644    4.0220 H         1 <0>         0.0674
     50 H20        -0.2404   -2.7982    5.7283 H         1 <0>         0.0775
     51 H21        -1.7685   -2.1506    5.0851 H         1 <0>         0.0822
     52 H22         0.3324    0.8836    5.3271 H         1 <0>         0.0754
     53 H23        -1.2341    0.1575    5.7598 H         1 <0>         0.0867
     54 H24         0.2628   -0.4399    6.5153 H         1 <0>         0.0743
     55 H25         2.8080  -12.8208   -0.1281 H         1 <0>         0.1550
     56 H26         0.2317  -13.8415    1.1517 H         1 <0>         0.0778
     57 H27         1.2223  -14.7249   -0.0344 H         1 <0>         0.0951
     58 H28         1.8797  -14.3609    1.5792 H         1 <0>         0.0761
     59 H29        -0.1081  -12.0008   -0.5032 H         1 <0>         0.0850
     60 H30         1.2977  -11.2088   -1.2546 H         1 <0>         0.0773
     61 H31         0.8825  -12.8842   -1.6892 H         1 <0>         0.1014
@<TRIPOS>BOND
     1    1    2 1
     2    1   34 1
     3    1   35 1
     4    1   36 1
     5    2    3 1
     6    2   37 1
     7    2   38 1
     8    3    4 1
     9    4   21 1
    10    4    5 2
    11    5    6 1
    12    5   39 1
    13    6    7 1
    14    6   18 1
    15    6    8 1
    16    8    9 1
    17    8   40 1
    18    8   41 1
    19    9   10 1
    20    9   16 1
    21    9   11 1
    22   11   12 1
    23   11   42 1
    24   11   43 1
    25   12   13 1
    26   13   14 2
    27   13   15 1
    28   13   28 1
    29   15   16 1
    30   15   44 1
    31   16   17 1
    32   17   18 1
    33   17   45 1
    34   17   46 1
    35   18   19 1
    36   18   20 1
    37   20   21 2
    38   20   47 1
    39   21   22 1
    40   22   23 2
    41   22   24 2
    42   22   25 1
    43   25   26 1
    44   25   27 1
    45   25   48 1
    46   26   49 1
    47   26   50 1
    48   26   51 1
    49   27   52 1
    50   27   53 1
    51   27   54 1
    52   28   29 2
    53   28   30 2
    54   28   31 1
    55   31   32 1
    56   31   33 1
    57   31   55 1
    58   32   56 1
    59   32   57 1
    60   32   58 1
    61   33   59 1
    62   33   60 1
    63   33   61 1
@<TRIPOS>MOLECULE
ZINC08937462
   58    61     0     0     0
SMALL
USER_CHARGES
(1-cyanocyclohexyl)carbamoylmethyl 1-(9,9-dioxo-9$l^{6}-thia-8-azabicyclo[4.3.0]nona-2,4,7,10-tetraen-7-yl)piperidine-4-carboxylate
@<TRIPOS>ATOM
      1 C1          5.9343    3.4961    9.5656 C.ar      1 <0>        -0.0856
      2 C2          6.7545    4.1806   10.4450 C.ar      1 <0>        -0.0911
      3 C3          8.0938    4.3615   10.1301 C.ar      1 <0>         0.0063
      4 C4          8.5846    3.8629    8.9588 C.ar      1 <0>        -0.6169
      5 C5          7.7777    3.1708    8.0452 C.ar      1 <0>        -0.1208
      6 C6          6.4272    2.9925    8.3830 C.ar      1 <0>        -0.0624
      7 C7          8.5324    2.7280    6.8629 C.2       1 <0>         0.5186
      8 N1          9.7934    3.0100    6.7750 N.2       1 <0>        -0.8689
      9 S1         10.1712    3.8546    8.1695 S.o2      1 <0>         2.5775
     10 O1         11.0376    3.0404    8.9477 O.2       1 <0>        -0.9380
     11 O2         10.4772    5.1913    7.7967 O.2       1 <0>        -0.9404
     12 N2          7.9038    2.0261    5.8576 N.pl3     1 <0>        -0.5786
     13 C8          8.3189    2.1896    4.4578 C.3       1 <0>         0.1214
     14 C9          7.0891    2.5474    3.6173 C.3       1 <0>        -0.1234
     15 C10         6.0043    1.4893    3.8317 C.3       1 <0>        -0.0773
     16 C11         5.5930    1.4698    5.3057 C.3       1 <0>        -0.1350
     17 C12         6.8058    1.0995    6.1653 C.3       1 <0>         0.1009
     18 C13         4.8055    1.8197    2.9803 C.2       1 <0>         0.4686
     19 O3          4.8173    2.8006    2.2751 O.2       1 <0>        -0.4977
     20 O4          3.7247    1.0241    3.0055 O.3       1 <0>        -0.3301
     21 C14         2.6070    1.4035    2.1599 C.3       1 <0>         0.0485
     22 C15         1.4936    0.4005    2.3189 C.2       1 <0>         0.5171
     23 O5          1.6288   -0.5414    3.0708 O.2       1 <0>        -0.4980
     24 N3          0.3477    0.5502    1.6254 N.am      1 <0>        -0.7202
     25 C16        -0.7347   -0.4249    1.7800 C.3       1 <0>         0.2851
     26 C17        -1.1881   -0.4563    3.2409 C.3       1 <0>        -0.1281
     27 C18        -2.3185   -1.4746    3.4023 C.3       1 <0>        -0.1226
     28 C19        -3.4963   -1.0748    2.5113 C.3       1 <0>        -0.1240
     29 C20        -3.0428   -1.0434    1.0503 C.3       1 <0>        -0.1217
     30 C21        -1.9124   -0.0251    0.8889 C.3       1 <0>        -0.1196
     31 C22        -0.2529   -1.7592    1.3870 C.1       1 <0>         0.2019
     32 N4          0.1189   -2.7889    1.0837 N.1       1 <0>        -0.4054
     33 H1          4.8919    3.3552    9.8105 H         1 <0>         0.1450
     34 H2          6.3552    4.5714   11.3693 H         1 <0>         0.1477
     35 H3          8.7440    4.8938   10.8086 H         1 <0>         0.1455
     36 H4          5.7704    2.4617    7.7097 H         1 <0>         0.1463
     37 H5          8.7518    1.2578    4.0938 H         1 <0>         0.0838
     38 H6          9.0568    2.9885    4.3842 H         1 <0>         0.1062
     39 H7          7.3649    2.5772    2.5632 H         1 <0>         0.0965
     40 H8          6.7111    3.5230    3.9227 H         1 <0>         0.0825
     41 H9          6.3913    0.5102    3.5497 H         1 <0>         0.1197
     42 H10         5.2292    2.4557    5.5950 H         1 <0>         0.0799
     43 H11         4.8039    0.7325    5.4535 H         1 <0>         0.1033
     44 H12         7.1153    0.0788    5.9405 H         1 <0>         0.0935
     45 H13         6.5460    1.1784    7.2209 H         1 <0>         0.1023
     46 H14         2.9301    1.4259    1.1191 H         1 <0>         0.1056
     47 H15         2.2503    2.3915    2.4509 H         1 <0>         0.1077
     48 H16         0.2396    1.3035    1.0240 H         1 <0>         0.4132
     49 H17        -0.3491   -0.7411    3.8757 H         1 <0>         0.0935
     50 H18        -1.5449    0.5317    3.5319 H         1 <0>         0.0870
     51 H19        -2.6416   -1.4970    4.4431 H         1 <0>         0.0765
     52 H20        -1.9618   -2.4626    3.1113 H         1 <0>         0.0627
     53 H21        -3.8530   -0.0868    2.8022 H         1 <0>         0.0705
     54 H22        -4.3016   -1.8003    2.6262 H         1 <0>         0.0699
     55 H23        -3.8819   -0.7586    0.4155 H         1 <0>         0.0798
     56 H24        -2.6861   -2.0314    0.7593 H         1 <0>         0.0646
     57 H25        -2.2692    0.9629    1.1799 H         1 <0>         0.0954
     58 H26        -1.5894   -0.0027   -0.1519 H         1 <0>         0.0812
@<TRIPOS>BOND
     1    1    6 ar
     2    1    2 ar
     3    1   33 1
     4    2    3 ar
     5    2   34 1
     6    3    4 ar
     7    3   35 1
     8    4    9 1
     9    4    5 ar
    10    5    6 ar
    11    5    7 1
    12    6   36 1
    13    7    8 2
    14    7   12 1
    15    8    9 1
    16    9   10 2
    17    9   11 2
    18   12   17 1
    19   12   13 1
    20   13   14 1
    21   13   37 1
    22   13   38 1
    23   14   15 1
    24   14   39 1
    25   14   40 1
    26   15   16 1
    27   15   18 1
    28   15   41 1
    29   16   17 1
    30   16   42 1
    31   16   43 1
    32   17   44 1
    33   17   45 1
    34   18   19 2
    35   18   20 1
    36   20   21 1
    37   21   22 1
    38   21   46 1
    39   21   47 1
    40   22   23 2
    41   22   24 am
    42   24   25 1
    43   24   48 1
    44   25   30 1
    45   25   26 1
    46   25   31 1
    47   26   27 1
    48   26   49 1
    49   26   50 1
    50   27   28 1
    51   27   51 1
    52   27   52 1
    53   28   29 1
    54   28   53 1
    55   28   54 1
    56   29   30 1
    57   29   55 1
    58   29   56 1
    59   30   57 1
    60   30   58 1
    61   31   32 3
@<TRIPOS>MOLECULE
ZINC11904526
   44    46     0     0     0
SMALL
USER_CHARGES
methyl 4-chloro-3-[[4-(1,1,3-trioxo-1,2-thiazolidin-2-yl)phenyl]sulfonylamino]benzoate
@<TRIPOS>ATOM
      1 C1          9.1450    6.6438    1.3883 C.3       1 <0>         0.0358
      2 O1          9.1427    5.4245    0.5998 O.3       1 <0>        -0.3529
      3 C2          9.0475    4.2613    1.2726 C.2       1 <0>         0.5055
      4 O2          8.9685    4.2654    2.4848 O.2       1 <0>        -0.4871
      5 C3          9.0391    2.9811    0.5364 C.ar      1 <0>        -0.0901
      6 C4          9.1302    2.9738   -0.8575 C.ar      1 <0>        -0.0621
      7 C5          9.1222    1.7769   -1.5430 C.ar      1 <0>        -0.0960
      8 C6          9.0303    0.5803   -0.8541 C.ar      1 <0>        -0.0246
      9 C7          8.9337    0.5772    0.5337 C.ar      1 <0>         0.1565
     10 C8          8.9405    1.7746    1.2312 C.ar      1 <0>        -0.1055
     11 N1          8.8357   -0.6339    1.2249 N.pl3     1 <0>        -1.0497
     12 S1          7.9057   -0.7344    2.5914 S.o2      1 <0>         2.6884
     13 O3          8.3442    0.3026    3.4583 O.2       1 <0>        -0.9350
     14 O4          7.9012   -2.1012    2.9800 O.2       1 <0>        -0.9367
     15 C9          6.2529   -0.3374    2.1271 C.ar      1 <0>        -0.6898
     16 C10         5.3927   -1.3386    1.7151 C.ar      1 <0>         0.0107
     17 C11         4.0966   -1.0307    1.3505 C.ar      1 <0>        -0.1378
     18 C12         3.6577    0.2859    1.3979 C.ar      1 <0>         0.2228
     19 C13         4.5258    1.2898    1.8067 C.ar      1 <0>        -0.1743
     20 C14         5.8191    0.9747    2.1750 C.ar      1 <0>         0.0126
     21 N2          2.3452    0.6012    1.0292 N.am      1 <0>        -0.8778
     22 C15         1.2936   -0.2310    1.0654 C.2       1 <0>         0.4893
     23 O5          1.4157   -1.3675    1.4712 O.2       1 <0>        -0.4573
     24 C16        -0.0355    0.2754    0.5924 C.3       1 <0>        -0.1439
     25 C17        -0.0070    1.8268    0.6014 C.3       1 <0>        -0.5749
     26 S2          1.8095    2.0838    0.4650 S.o2      1 <0>         2.5367
     27 O6          2.2123    2.1453   -0.8964 O.2       1 <0>        -0.9098
     28 O7          2.2591    3.0414    1.4137 O.2       1 <0>        -0.9158
     29 Cl1         9.0287   -0.9215   -1.7249 Cl        1 <0>        -0.0440
     30 H1          8.2180    6.7099    1.9579 H         1 <0>         0.0669
     31 H2          9.9924    6.6316    2.0737 H         1 <0>         0.0668
     32 H3          9.2262    7.5051    0.7253 H         1 <0>         0.1059
     33 H4          9.2066    3.9054   -1.3984 H         1 <0>         0.1550
     34 H5          9.1924    1.7735   -2.6207 H         1 <0>         0.1523
     35 H6          8.8702    1.7742    2.3089 H         1 <0>         0.1863
     36 H7          9.3125   -1.4153    0.9042 H         1 <0>         0.4335
     37 H8          5.7345   -2.3624    1.6787 H         1 <0>         0.1528
     38 H9          3.4253   -1.8131    1.0285 H         1 <0>         0.1550
     39 H10         4.1888    2.3154    1.8404 H         1 <0>         0.1581
     40 H11         6.4935    1.7544    2.4969 H         1 <0>         0.1524
     41 H12        -0.8216   -0.0807    1.2582 H         1 <0>         0.1488
     42 H13        -0.2229   -0.0820   -0.4201 H         1 <0>         0.1438
     43 H14        -0.5343    2.2407   -0.2581 H         1 <0>         0.1671
     44 H15        -0.3977    2.2278    1.5367 H         1 <0>         0.1620
@<TRIPOS>BOND
     1    1    2 1
     2    1   30 1
     3    1   31 1
     4    1   32 1
     5    2    3 1
     6    3    4 2
     7    3    5 1
     8    5   10 ar
     9    5    6 ar
    10    6    7 ar
    11    6   33 1
    12    7    8 ar
    13    7   34 1
    14    8    9 ar
    15    8   29 1
    16    9   10 ar
    17    9   11 1
    18   10   35 1
    19   11   12 1
    20   11   36 1
    21   12   13 2
    22   12   14 2
    23   12   15 1
    24   15   20 ar
    25   15   16 ar
    26   16   17 ar
    27   16   37 1
    28   17   18 ar
    29   17   38 1
    30   18   19 ar
    31   18   21 1
    32   19   20 ar
    33   19   39 1
    34   20   40 1
    35   21   26 1
    36   21   22 am
    37   22   23 2
    38   22   24 1
    39   24   25 1
    40   24   41 1
    41   24   42 1
    42   25   26 1
    43   25   43 1
    44   25   44 1
    45   26   27 2
    46   26   28 2
@<TRIPOS>MOLECULE
ZINC15859271
   54    57     0     0     0
SMALL
USER_CHARGES
N-(3-cyanophenyl)-2-[[5-[(2,9-dimethyl-4-oxo-pyrido[1,2-a]pyrimidin-3-yl)methyl]-4-methyl-1,2,4-triazol-3-yl]sulfanyl]acetamide
@<TRIPOS>ATOM
      1 C1         10.6346   12.4638    4.7934 C.3       1 <0>        -0.0943
      2 C2          9.2588   12.8688    4.3309 C.2       1 <0>        -0.1010
      3 C3          8.4440   13.5921    5.1494 C.2       1 <0>        -0.0399
      4 C4          7.1669   13.9609    4.7038 C.2       1 <0>        -0.1587
      5 C5          6.7477   13.6006    3.4700 C.2       1 <0>         0.0895
      6 N1          7.5544   12.8782    2.6441 N.am      1 <0>        -0.4254
      7 C6          8.8047   12.5033    3.0503 C.2       1 <0>         0.3960
      8 N2          9.5998   11.7969    2.2489 N.2       1 <0>        -0.5363
      9 C7          9.2075   11.4295    1.0391 C.2       1 <0>         0.2399
     10 C8          7.9552   11.7879    0.5795 C.2       1 <0>        -0.3157
     11 C9          7.1139   12.5305    1.4161 C.2       1 <0>         0.5171
     12 O1          5.9994   12.8589    1.0411 O.2       1 <0>        -0.5334
     13 C10         7.4998   11.3807   -0.7982 C.3       1 <0>         0.0447
     14 C11         6.7213   10.0935   -0.7098 C.2       1 <0>         0.1974
     15 N3          7.2195    8.8897   -0.6883 N.2       1 <0>        -0.2813
     16 N4          6.2744    8.0224   -0.6079 N.2       1 <0>        -0.2931
     17 C12         5.1119    8.6315   -0.5734 C.2       1 <0>         0.1314
     18 N5          5.3607    9.9722   -0.6434 N.pl3     1 <0>        -0.4514
     19 C13         4.3749   11.0559   -0.6437 C.3       1 <0>         0.0779
     20 S1          3.5297    7.8637   -0.4651 S.3       1 <0>         0.0830
     21 C14         4.0268    6.1239   -0.4220 C.3       1 <0>        -0.1484
     22 C15         2.8005    5.2532   -0.3273 C.2       1 <0>         0.5356
     23 O2          1.6987    5.7592   -0.2924 O.2       1 <0>        -0.5005
     24 N6          2.9279    3.9122   -0.2815 N.am      1 <0>        -0.6659
     25 C16         1.7885    3.0999   -0.3025 C.ar      1 <0>         0.1454
     26 C17         1.7778    1.8995    0.3982 C.ar      1 <0>        -0.1124
     27 C18         0.6552    1.0934    0.3809 C.ar      1 <0>        -0.0974
     28 C19        -0.4649    1.4773   -0.3281 C.ar      1 <0>        -0.0830
     29 C20        -0.4628    2.6790   -1.0394 C.ar      1 <0>        -0.0058
     30 C21         0.6708    3.4926   -1.0216 C.ar      1 <0>        -0.0750
     31 C22        -1.6220    3.0778   -1.7796 C.1       1 <0>         0.2516
     32 N7         -2.5415    3.3942   -2.3668 N.1       1 <0>        -0.4072
     33 C23        10.1301   10.6247    0.1604 C.3       1 <0>        -0.1187
     34 H1         10.8026   12.8365    5.8038 H         1 <0>         0.0729
     35 H2         10.7140   11.3767    4.7893 H         1 <0>         0.0806
     36 H3         11.3825   12.8852    4.1217 H         1 <0>         0.0811
     37 H4          8.7800   13.8797    6.1347 H         1 <0>         0.1547
     38 H5          6.5165   14.5344    5.3476 H         1 <0>         0.1615
     39 H6          5.7623   13.8892    3.1355 H         1 <0>         0.1821
     40 H7          8.3687   11.2365   -1.4403 H         1 <0>         0.1131
     41 H8          6.8646   12.1616   -1.2164 H         1 <0>         0.0956
     42 H9          4.1120   11.3082    0.3836 H         1 <0>         0.0886
     43 H10         4.7978   11.9316   -1.1360 H         1 <0>         0.0998
     44 H11         3.4815   10.7342   -1.1788 H         1 <0>         0.0879
     45 H12         4.6641    5.9494    0.4449 H         1 <0>         0.1315
     46 H13         4.5760    5.8803   -1.3316 H         1 <0>         0.1336
     47 H14         3.8094    3.5102   -0.2339 H         1 <0>         0.4194
     48 H15         2.6497    1.5958    0.9585 H         1 <0>         0.1366
     49 H16         0.6530    0.1621    0.9276 H         1 <0>         0.1411
     50 H17        -1.3418    0.8468   -0.3355 H         1 <0>         0.1367
     51 H18         0.6772    4.4249   -1.5667 H         1 <0>         0.1449
     52 H19        10.7862   11.2984   -0.3909 H         1 <0>         0.0908
     53 H20        10.7309    9.9579    0.7788 H         1 <0>         0.0869
     54 H21         9.5407   10.0358   -0.5424 H         1 <0>         0.0961
@<TRIPOS>BOND
     1    1    2 1
     2    1   34 1
     3    1   35 1
     4    1   36 1
     5    2    7 1
     6    2    3 2
     7    3    4 1
     8    3   37 1
     9    4    5 2
    10    4   38 1
    11    5    6 1
    12    5   39 1
    13    6   11 am
    14    6    7 1
    15    7    8 2
    16    8    9 1
    17    9   10 2
    18    9   33 1
    19   10   11 1
    20   10   13 1
    21   11   12 2
    22   13   14 1
    23   13   40 1
    24   13   41 1
    25   14   18 1
    26   14   15 2
    27   15   16 1
    28   16   17 2
    29   17   18 1
    30   17   20 1
    31   18   19 1
    32   19   42 1
    33   19   43 1
    34   19   44 1
    35   20   21 1
    36   21   22 1
    37   21   45 1
    38   21   46 1
    39   22   23 2
    40   22   24 am
    41   24   25 1
    42   24   47 1
    43   25   30 ar
    44   25   26 ar
    45   26   27 ar
    46   26   48 1
    47   27   28 ar
    48   27   49 1
    49   28   29 ar
    50   28   50 1
    51   29   30 ar
    52   29   31 1
    53   30   51 1
    54   31   32 3
    55   33   52 1
    56   33   53 1
    57   33   54 1
@<TRIPOS>MOLECULE
ZINC09057770
   56    59     0     0     0
SMALL
USER_CHARGES

@<TRIPOS>ATOM
      1 C1          3.5830   -4.3187   -3.3451 C.3       1 <0>        -0.1525
      2 C2          2.8107   -3.5237   -2.2904 C.3       1 <0>         0.0799
      3 O1          1.4144   -3.5641   -2.5914 O.3       1 <0>        -0.3652
      4 C3          0.5893   -2.9082   -1.7537 C.2       1 <0>         0.6505
      5 O2          1.0424   -2.3176   -0.7933 O.2       1 <0>        -0.5688
      6 N1         -0.7393   -2.9068   -1.9803 N.am      1 <0>        -0.5912
      7 C4         -1.3020   -3.6219   -3.1344 C.3       1 <0>         0.0991
      8 C5         -2.3654   -4.6055   -2.6305 C.3       1 <0>         0.1133
      9 N2         -3.2774   -3.8892   -1.7277 N.pl3     1 <0>        -0.6448
     10 C6         -2.7147   -3.1740   -0.5737 C.3       1 <0>         0.1267
     11 C7         -1.6518   -2.1951   -1.0744 C.3       1 <0>         0.1108
     12 C8         -4.6483   -3.8877   -1.9616 C.2       1 <0>         0.0895
     13 C9         -5.3447   -5.0521   -1.8839 C.2       1 <0>         0.1010
     14 C10        -6.7965   -5.0777   -2.1270 C.2       1 <0>         0.4051
     15 O3         -7.4083   -6.1256   -2.0546 O.2       1 <0>        -0.3868
     16 C11        -7.5092   -3.8234   -2.4593 C.ar      1 <0>        -0.1094
     17 C12        -8.8785   -3.8250   -2.6918 C.ar      1 <0>        -0.0605
     18 C13        -9.5264   -2.6387   -3.0013 C.ar      1 <0>        -0.0980
     19 C14        -8.8187   -1.4553   -3.0803 C.ar      1 <0>        -0.0949
     20 C15        -7.4512   -1.4384   -2.8507 C.ar      1 <0>        -0.0649
     21 C16        -6.7889   -2.6188   -2.5393 C.ar      1 <0>        -0.1199
     22 C17        -5.3305   -2.6237   -2.2846 C.2       1 <0>         0.4248
     23 O4         -4.6974   -1.5879   -2.3467 O.2       1 <0>        -0.4170
     24 N3         -4.6786   -6.2323   -1.5719 N.pl3     1 <0>        -1.0290
     25 S1         -5.4910   -7.6750   -1.6040 S.o2      1 <0>         2.6872
     26 O5         -4.5211   -8.6921   -1.3943 O.2       1 <0>        -0.9508
     27 O6         -6.6266   -7.5203   -0.7639 O.2       1 <0>        -0.9212
     28 C18        -6.1024   -7.8922   -3.2422 C.ar      1 <0>        -0.6692
     29 C19        -7.4617   -8.0137   -3.4622 C.ar      1 <0>         0.0106
     30 C20        -7.9414   -8.1841   -4.7474 C.ar      1 <0>        -0.1453
     31 C21        -7.0618   -8.2326   -5.8127 C.ar      1 <0>        -0.0606
     32 C22        -5.7025   -8.1102   -5.5928 C.ar      1 <0>        -0.1429
     33 C23        -5.2232   -7.9355   -4.3080 C.ar      1 <0>        -0.0279
     34 H1          4.6481   -4.2879   -3.1156 H         1 <0>         0.0827
     35 H2          3.2407   -5.3536   -3.3428 H         1 <0>         0.0666
     36 H3          3.4105   -3.8812   -4.3284 H         1 <0>         0.0664
     37 H4          2.9833   -3.9612   -1.3071 H         1 <0>         0.0682
     38 H5          3.1531   -2.4888   -2.2928 H         1 <0>         0.0680
     39 H6         -1.7592   -2.9081   -3.8196 H         1 <0>         0.0778
     40 H7         -0.5109   -4.1694   -3.6468 H         1 <0>         0.1026
     41 H8         -2.9259   -5.0034   -3.4765 H         1 <0>         0.0897
     42 H9         -1.8833   -5.4212   -2.0917 H         1 <0>         0.0679
     43 H10        -3.5059   -2.6266   -0.0613 H         1 <0>         0.0912
     44 H11        -2.2575   -3.8878    0.1115 H         1 <0>         0.0691
     45 H12        -1.0917   -1.8006   -0.2267 H         1 <0>         0.1041
     46 H13        -2.1346   -1.3774   -1.6096 H         1 <0>         0.0858
     47 H14        -9.4369   -4.7475   -2.6321 H         1 <0>         0.1465
     48 H15       -10.5912   -2.6402   -3.1821 H         1 <0>         0.1403
     49 H16        -9.3334   -0.5373   -3.3228 H         1 <0>         0.1398
     50 H17        -6.9028   -0.5102   -2.9142 H         1 <0>         0.1447
     51 H18        -3.7381   -6.2105   -1.3355 H         1 <0>         0.4319
     52 H19        -8.1490   -7.9758   -2.6300 H         1 <0>         0.1536
     53 H20        -9.0033   -8.2797   -4.9192 H         1 <0>         0.1335
     54 H21        -7.4364   -8.3665   -6.8167 H         1 <0>         0.1307
     55 H22        -5.0152   -8.1485   -6.4250 H         1 <0>         0.1321
     56 H23        -4.1615   -7.8362   -4.1366 H         1 <0>         0.1292
@<TRIPOS>BOND
     1    1    2 1
     2    1   34 1
     3    1   35 1
     4    1   36 1
     5    2    3 1
     6    2   37 1
     7    2   38 1
     8    3    4 1
     9    4    5 2
    10    4    6 am
    11    6   11 1
    12    6    7 1
    13    7    8 1
    14    7   39 1
    15    7   40 1
    16    8    9 1
    17    8   41 1
    18    8   42 1
    19    9   10 1
    20    9   12 1
    21   10   11 1
    22   10   43 1
    23   10   44 1
    24   11   45 1
    25   11   46 1
    26   12   22 1
    27   12   13 2
    28   13   14 1
    29   13   24 1
    30   14   15 2
    31   14   16 1
    32   16   21 ar
    33   16   17 ar
    34   17   18 ar
    35   17   47 1
    36   18   19 ar
    37   18   48 1
    38   19   20 ar
    39   19   49 1
    40   20   21 ar
    41   20   50 1
    42   21   22 1
    43   22   23 2
    44   24   25 1
    45   24   51 1
    46   25   26 2
    47   25   27 2
    48   25   28 1
    49   28   33 ar
    50   28   29 ar
    51   29   30 ar
    52   29   52 1
    53   30   31 ar
    54   30   53 1
    55   31   32 ar
    56   31   54 1
    57   32   33 ar
    58   32   55 1
    59   33   56 1
@<TRIPOS>MOLECULE
ZINC03864215
   46    49     0     0     0
SMALL
USER_CHARGES

@<TRIPOS>ATOM
      1 C1         -5.5159    6.8544   -0.8209 C.3       1 <0>        -0.1486
      2 C2         -6.2052    7.0484    0.5311 C.3       1 <0>        -0.0317
      3 C3         -6.4426    5.7049    1.1713 C.2       1 <0>         0.1339
      4 N1         -6.1385    4.5207    0.7230 N.2       1 <0>        -0.2579
      5 N2         -6.4264    3.3852    1.4495 N.pl3     1 <0>        -0.4328
      6 C4         -6.0620    2.0671    1.0995 C.2       1 <0>         0.4635
      7 N3         -5.0736    1.7859    0.2931 N.2       1 <0>        -0.6368
      8 C5         -6.9164    1.0278    1.7412 C.2       1 <0>        -0.2102
      9 C6         -7.2122   -0.1591    1.1097 C.2       1 <0>         0.0802
     10 C7         -8.2029   -1.0698    1.6887 C.ar      1 <0>        -0.0361
     11 C8         -9.3431   -0.5572    2.3238 C.ar      1 <0>        -0.1368
     12 C9        -10.2729   -1.4204    2.8668 C.ar      1 <0>         0.1473
     13 C10       -10.0782   -2.7995    2.7837 C.ar      1 <0>         0.0818
     14 C11        -8.9482   -3.3100    2.1549 C.ar      1 <0>        -0.0070
     15 C12        -8.0170   -2.4566    1.6045 C.ar      1 <0>        -0.0963
     16 Cl1        -8.7134   -5.0273    2.0569 Cl        1 <0>        -0.0326
     17 O1        -10.9952   -3.6460    3.3191 O.3       1 <0>        -0.2655
     18 C13       -12.0094   -4.0611    2.5323 C.2       1 <0>         0.5541
     19 O2        -12.0821   -3.6769    1.3805 O.2       1 <0>        -0.4671
     20 C14       -13.0230   -4.9742    3.0649 C.2       1 <0>        -0.0657
     21 C15       -14.0938   -5.4741    2.3787 C.2       1 <0>        -0.0975
     22 C16       -14.7940   -6.3006    3.2704 C.2       1 <0>        -0.2284
     23 C17       -14.1294   -6.2700    4.4470 C.2       1 <0>         0.0148
     24 O3        -13.0601   -5.4742    4.3177 O.3       1 <0>        -0.1482
     25 O4        -11.3794   -0.9266    3.4838 O.3       1 <0>        -0.3000
     26 C18       -11.5147    0.4952    3.5329 C.3       1 <0>         0.0220
     27 C19        -7.4308    1.3411    3.0977 C.2       1 <0>         0.5409
     28 O5         -7.7310    0.4508    3.8766 O.2       1 <0>        -0.4268
     29 N4         -7.5564    2.6371    3.4443 N.2       1 <0>        -0.5422
     30 C20        -7.1061    3.5632    2.6353 C.2       1 <0>         0.3960
     31 S1         -7.2063    5.3305    2.7437 S.3       1 <0>         0.0943
     32 H1         -5.3442    7.8261   -1.2840 H         1 <0>         0.0777
     33 H2         -4.5617    6.3488   -0.6730 H         1 <0>         0.0653
     34 H3         -6.1507    6.2501   -1.4690 H         1 <0>         0.0656
     35 H4         -5.5705    7.6527    1.1792 H         1 <0>         0.1146
     36 H5         -7.1595    7.5540    0.3832 H         1 <0>         0.1141
     37 H6         -4.5483    2.5013   -0.0981 H         1 <0>         0.3634
     38 H7         -6.7138   -0.4189    0.1874 H         1 <0>         0.1643
     39 H8         -9.4931    0.5104    2.3882 H         1 <0>         0.1386
     40 H9         -7.1425   -2.8558    1.1123 H         1 <0>         0.1550
     41 H10       -14.3513   -5.2719    1.3495 H         1 <0>         0.1664
     42 H11       -15.6949   -6.8567    3.0568 H         1 <0>         0.1641
     43 H12       -14.4118   -6.8032    5.3428 H         1 <0>         0.2173
     44 H13       -11.5429    0.8928    2.5184 H         1 <0>         0.0564
     45 H14       -12.4381    0.7546    4.0507 H         1 <0>         0.1097
     46 H15       -10.6661    0.9226    4.0672 H         1 <0>         0.0665
@<TRIPOS>BOND
     1    1    2 1
     2    1   32 1
     3    1   33 1
     4    1   34 1
     5    2    3 1
     6    2   35 1
     7    2   36 1
     8    3   31 1
     9    3    4 2
    10    4    5 1
    11    5   30 1
    12    5    6 1
    13    6    7 2
    14    6    8 1
    15    7   37 1
    16    8    9 2
    17    8   27 1
    18    9   10 1
    19    9   38 1
    20   10   15 ar
    21   10   11 ar
    22   11   12 ar
    23   11   39 1
    24   12   13 ar
    25   12   25 1
    26   13   14 ar
    27   13   17 1
    28   14   15 ar
    29   14   16 1
    30   15   40 1
    31   17   18 1
    32   18   19 2
    33   18   20 1
    34   20   24 1
    35   20   21 2
    36   21   22 1
    37   21   41 1
    38   22   23 2
    39   22   42 1
    40   23   24 1
    41   23   43 1
    42   25   26 1
    43   26   44 1
    44   26   45 1
    45   26   46 1
    46   27   28 2
    47   27   29 1
    48   29   30 2
    49   30   31 1
@<TRIPOS>MOLECULE
ZINC00913639
   59    63     0     0     0
SMALL
USER_CHARGES
N-[(8-methyl-2-oxo-1H-quinolin-3-yl)methyl]-N-(tetrahydrofuran-2-ylmethyl)-2,5-dioxabicyclo[4.4.0]deca-7,9,11-triene-8-sulfonamide
@<TRIPOS>ATOM
      1 C1         11.4597   -1.0381   -0.7219 C.3       1 <0>        -0.1164
      2 C2         10.6658   -1.4418   -1.9374 C.ar      1 <0>        -0.1338
      3 C3         11.2708   -2.1459   -2.9565 C.ar      1 <0>        -0.0653
      4 C4         10.5506   -2.5241   -4.0811 C.ar      1 <0>        -0.1505
      5 C5          9.2274   -2.2048   -4.1991 C.ar      1 <0>        -0.0584
      6 C6          8.5926   -1.4913   -3.1775 C.ar      1 <0>        -0.1342
      7 C7          9.3198   -1.1059   -2.0353 C.ar      1 <0>         0.1930
      8 N1          8.6893   -0.4019   -1.0314 N.am      1 <0>        -0.6388
      9 H1          9.2064   -0.1319   -0.2191 H         1 <0>         0.4189
     10 C8          7.3892   -0.0731   -1.1288 C.2       1 <0>         0.5143
     11 O1          6.8655    0.5536   -0.2241 O.2       1 <0>        -0.4700
     12 C9          6.6144   -0.4401   -2.2499 C.2       1 <0>        -0.2050
     13 C10         7.1761   -1.1330   -3.2712 C.2       1 <0>        -0.0021
     14 C11         5.1588   -0.0551   -2.3150 C.3       1 <0>         0.1833
     15 N2          4.3561   -1.0598   -1.6133 N.pl3     1 <0>        -0.9839
     16 C12         3.9222   -2.2708   -2.3144 C.3       1 <0>         0.1183
     17 C13         2.6277   -1.9824   -3.0773 C.3       1 <0>         0.0518
     18 H2          1.8830   -1.5493   -2.4095 H         1 <0>         0.0704
     19 C14         2.0839   -3.2765   -3.7222 C.3       1 <0>        -0.1509
     20 C15         1.5099   -2.8077   -5.0780 C.3       1 <0>        -0.1544
     21 C16         1.7749   -1.2859   -5.0918 C.3       1 <0>         0.0439
     22 O2          2.8857   -1.0965   -4.1884 O.3       1 <0>        -0.3631
     23 S1          3.9391   -0.8266   -0.0278 S.o2      1 <0>         2.6684
     24 O3          4.9043    0.0610    0.5197 O.2       1 <0>        -0.8967
     25 O4          3.6905   -2.1139    0.5203 O.2       1 <0>        -0.9596
     26 C17         2.4005    0.0321   -0.0146 C.ar      1 <0>        -0.6747
     27 C18         2.3818    1.4144   -0.0092 C.ar      1 <0>        -0.0106
     28 C19         1.1771    2.0915    0.0021 C.ar      1 <0>        -0.1333
     29 C20        -0.0168    1.3855    0.0097 C.ar      1 <0>         0.1055
     30 C21         0.0021   -0.0041    0.0020 C.ar      1 <0>         0.0293
     31 C22         1.2146   -0.6774   -0.0091 C.ar      1 <0>        -0.0173
     32 O5         -1.1577   -0.7164    0.0017 O.3       1 <0>        -0.3039
     33 C23        -2.3433   -0.0154    0.3927 C.3       1 <0>         0.0185
     34 C24        -2.3681    1.3326   -0.3405 C.3       1 <0>         0.0179
     35 O6         -1.1953    2.0660    0.0302 O.3       1 <0>        -0.3016
     36 H3         11.3973   -1.8243    0.0305 H         1 <0>         0.0753
     37 H4         12.5019   -0.8859   -1.0026 H         1 <0>         0.0768
     38 H5         11.0543   -0.1120   -0.3142 H         1 <0>         0.0632
     39 H6         12.3161   -2.4063   -2.8788 H         1 <0>         0.1305
     40 H7         11.0406   -3.0754   -4.8700 H         1 <0>         0.1291
     41 H8          8.6738   -2.5030   -5.0772 H         1 <0>         0.1336
     42 H9          6.5916   -1.4140   -4.1348 H         1 <0>         0.1454
     43 H10         4.8435   -0.0011   -3.3570 H         1 <0>         0.1065
     44 H11         5.0186    0.9170   -1.8421 H         1 <0>         0.0979
     45 H12         4.6962   -2.5813   -3.0163 H         1 <0>         0.0947
     46 H13         3.7477   -3.0669   -1.5905 H         1 <0>         0.1087
     47 H14         2.8896   -3.9942   -3.8762 H         1 <0>         0.0813
     48 H15         1.2977   -3.7101   -3.1041 H         1 <0>         0.0806
     49 H16         2.0319   -3.2938   -5.9023 H         1 <0>         0.0767
     50 H17         0.4405   -3.0118   -5.1311 H         1 <0>         0.0761
     51 H18         2.0420   -0.9563   -6.0959 H         1 <0>         0.0921
     52 H19         0.8980   -0.7448   -4.7363 H         1 <0>         0.0567
     53 H20         3.3102    1.9662   -0.0139 H         1 <0>         0.1523
     54 H21         1.1652    3.1714    0.0054 H         1 <0>         0.1459
     55 H22         1.2320   -1.7573   -0.0131 H         1 <0>         0.1484
     56 H23        -3.2224   -0.5988    0.1193 H         1 <0>         0.1274
     57 H24        -2.3333    0.1514    1.4698 H         1 <0>         0.0811
     58 H25        -2.3727    1.1652   -1.4175 H         1 <0>         0.0823
     59 H26        -3.2582    1.8917   -0.0517 H         1 <0>         0.1278
@<TRIPOS>BOND
     1    1    2 1
     2    1   36 1
     3    1   37 1
     4    1   38 1
     5    2    7 ar
     6    2    3 ar
     7    3    4 ar
     8    3   39 1
     9    4    5 ar
    10    4   40 1
    11    5    6 ar
    12    5   41 1
    13    6   13 1
    14    6    7 ar
    15    7    8 1
    16    8    9 1
    17    8   10 am
    18   10   11 2
    19   10   12 1
    20   12   13 2
    21   12   14 1
    22   13   42 1
    23   14   15 1
    24   14   43 1
    25   14   44 1
    26   15   16 1
    27   15   23 1
    28   16   17 1
    29   16   45 1
    30   16   46 1
    31   17   18 1
    32   17   22 1
    33   17   19 1
    34   19   20 1
    35   19   47 1
    36   19   48 1
    37   20   21 1
    38   20   49 1
    39   20   50 1
    40   21   22 1
    41   21   51 1
    42   21   52 1
    43   23   24 2
    44   23   25 2
    45   23   26 1
    46   26   31 ar
    47   26   27 ar
    48   27   28 ar
    49   27   53 1
    50   28   29 ar
    51   28   54 1
    52   29   35 1
    53   29   30 ar
    54   30   31 ar
    55   30   32 1
    56   31   55 1
    57   32   33 1
    58   33   34 1
    59   33   56 1
    60   33   57 1
    61   34   35 1
    62   34   58 1
    63   34   59 1
@<TRIPOS>MOLECULE
ZINC14228762
   56    59     0     0     0
SMALL
USER_CHARGES
[(1R)-2-(2,3-dihydro-1,4-benzodioxin-6-ylamino)-1-methyl-2-oxo-ethyl] (3S)-1-(3-methylsulfanylphenyl)-5-oxo-pyrrolidine-3-carboxylate
@<TRIPOS>ATOM
      1 C1         -6.0564   -1.6738    1.5156 C.3       1 <0>        -0.1681
      2 C2         -6.0568   -0.8656    0.2165 C.3       1 <0>         0.0729
      3 H1         -6.1419   -1.5433   -0.6330 H         1 <0>         0.1175
      4 C3         -4.7719   -0.0855    0.1098 C.2       1 <0>         0.5154
      5 O1         -4.7948    1.1270    0.1331 O.2       1 <0>        -0.4887
      6 N1         -3.5972   -0.7350   -0.0114 N.am      1 <0>        -0.6643
      7 C4         -2.3947   -0.0161    0.0010 C.ar      1 <0>         0.1485
      8 C5         -1.3164   -0.4531   -0.7567 C.ar      1 <0>        -0.1362
      9 C6         -0.1292    0.2528   -0.7413 C.ar      1 <0>        -0.0920
     10 C7         -0.0118    1.4025    0.0260 C.ar      1 <0>         0.0386
     11 C8         -1.0902    1.8434    0.7840 C.ar      1 <0>         0.0722
     12 C9         -2.2806    1.1327    0.7708 C.ar      1 <0>        -0.1154
     13 O2         -0.9946    2.9697    1.5424 O.3       1 <0>        -0.3034
     14 C10         0.3261    3.4450    1.8248 C.3       1 <0>         0.0199
     15 C11         1.1315    3.4293    0.5185 C.3       1 <0>         0.0198
     16 O3          1.1673    2.0841    0.0301 O.3       1 <0>        -0.3063
     17 O4         -7.1817    0.0524    0.2179 O.3       1 <0>        -0.3198
     18 C12        -8.3355   -0.3968   -0.3004 C.2       1 <0>         0.4799
     19 O5         -8.4032   -1.5200   -0.7408 O.2       1 <0>        -0.4932
     20 C13        -9.5464    0.4996   -0.3332 C.3       1 <0>        -0.0949
     21 H2         -9.7905    0.8589    0.6665 H         1 <0>         0.1393
     22 C14        -9.3351    1.6796   -1.3099 C.3       1 <0>        -0.1393
     23 C15       -10.6927    1.8824   -1.9459 C.2       1 <0>         0.5198
     24 O6        -11.0326    2.8737   -2.5566 O.2       1 <0>        -0.4931
     25 N2        -11.4673    0.8041   -1.7359 N.am      1 <0>        -0.5588
     26 C16       -10.7532   -0.2244   -0.9703 C.3       1 <0>         0.1087
     27 C17       -12.7851    0.6783   -2.1892 C.ar      1 <0>         0.1838
     28 C18       -13.5429   -0.4284   -1.8258 C.ar      1 <0>        -0.1624
     29 C19       -14.8458   -0.5515   -2.2688 C.ar      1 <0>        -0.0700
     30 C20       -15.3965    0.4193   -3.0830 C.ar      1 <0>        -0.1583
     31 C21       -14.6423    1.5263   -3.4547 C.ar      1 <0>        -0.0556
     32 C22       -13.3343    1.6551   -3.0065 C.ar      1 <0>        -0.1377
     33 S1        -15.3449    2.7639   -4.4935 S.3       1 <0>        -0.1064
     34 C23       -17.0292    2.1684   -4.8083 C.3       1 <0>        -0.1469
     35 H3         -5.2119   -2.3630    1.5145 H         1 <0>         0.0855
     36 H4         -5.9712   -0.9961    2.3651 H         1 <0>         0.0780
     37 H5         -6.9857   -2.2381    1.5928 H         1 <0>         0.0809
     38 H6         -3.5843   -1.7001   -0.1073 H         1 <0>         0.4154
     39 H7         -1.4050   -1.3469   -1.3564 H         1 <0>         0.1381
     40 H8          0.7081   -0.0884   -1.3319 H         1 <0>         0.1418
     41 H9         -3.1192    1.4731    1.3602 H         1 <0>         0.1473
     42 H10         0.2754    4.4622    2.2133 H         1 <0>         0.1246
     43 H11         0.8021    2.7941    2.5581 H         1 <0>         0.0794
     44 H12         0.6514    4.0747   -0.2171 H         1 <0>         0.0791
     45 H13         2.1464    3.7787    0.7082 H         1 <0>         0.1243
     46 H14        -9.0307    2.5744   -0.7670 H         1 <0>         0.1282
     47 H15        -8.5943    1.4207   -2.0663 H         1 <0>         0.1170
     48 H16       -10.4096   -1.0180   -1.6339 H         1 <0>         0.1043
     49 H17       -11.3991   -0.6354   -0.1944 H         1 <0>         0.1016
     50 H18       -13.1142   -1.1912   -1.1928 H         1 <0>         0.1297
     51 H19       -15.4336   -1.4108   -1.9816 H         1 <0>         0.1320
     52 H20       -16.4140    0.3183   -3.4307 H         1 <0>         0.1254
     53 H21       -12.7458    2.5139   -3.2939 H         1 <0>         0.1616
     54 H22       -16.9850    1.1964   -5.2996 H         1 <0>         0.0847
     55 H23       -17.5637    2.0737   -3.8631 H         1 <0>         0.0848
     56 H24       -17.5509    2.8771   -5.4513 H         1 <0>         0.1107
@<TRIPOS>BOND
     1    1    2 1
     2    1   35 1
     3    1   36 1
     4    1   37 1
     5    2    3 1
     6    2    4 1
     7    2   17 1
     8    4    5 2
     9    4    6 am
    10    6    7 1
    11    6   38 1
    12    7   12 ar
    13    7    8 ar
    14    8    9 ar
    15    8   39 1
    16    9   10 ar
    17    9   40 1
    18   10   16 1
    19   10   11 ar
    20   11   12 ar
    21   11   13 1
    22   12   41 1
    23   13   14 1
    24   14   15 1
    25   14   42 1
    26   14   43 1
    27   15   16 1
    28   15   44 1
    29   15   45 1
    30   17   18 1
    31   18   19 2
    32   18   20 1
    33   20   21 1
    34   20   26 1
    35   20   22 1
    36   22   23 1
    37   22   46 1
    38   22   47 1
    39   23   24 2
    40   23   25 am
    41   25   26 1
    42   25   27 1
    43   26   48 1
    44   26   49 1
    45   27   32 ar
    46   27   28 ar
    47   28   29 ar
    48   28   50 1
    49   29   30 ar
    50   29   51 1
    51   30   31 ar
    52   30   52 1
    53   31   32 ar
    54   31   33 1
    55   32   53 1
    56   33   34 1
    57   34   54 1
    58   34   55 1
    59   34   56 1
@<TRIPOS>MOLECULE
ZINC24718338
   53    55     0     0     0
SMALL
USER_CHARGES
2-[(4R)-4-(2,4-dichlorophenyl)-4-methyl-2,5-dioxo-imidazolidin-1-yl]-N-[(3S)-1,1-dioxothiolan-3-yl]-N-propyl-acetamide
@<TRIPOS>ATOM
      1 C1          0.8312    6.7110   -6.1335 C.3       1 <0>        -0.1539
      2 C2          1.3000    5.2863   -5.8315 C.3       1 <0>        -0.1482
      3 C3          0.0954    4.3429   -5.8285 C.3       1 <0>         0.0979
      4 N1          0.5443    2.9787   -5.5392 N.am      1 <0>        -0.6024
      5 C4          0.9301    2.0866   -6.6354 C.3       1 <0>         0.1513
      6 H1          0.8040    2.6532   -7.5698 H         1 <0>         0.1147
      7 C5          2.3993    1.6682   -6.4600 C.3       1 <0>        -0.1541
      8 C6          2.6884    0.4936   -7.4379 C.3       1 <0>        -0.5776
      9 S1          1.1346   -0.4810   -7.2628 S.o2      1 <0>         2.3878
     10 O1          1.3166   -1.4636   -6.2526 O.2       1 <0>        -0.9227
     11 O2          0.6898   -0.8775   -8.5528 O.2       1 <0>        -0.9372
     12 C7          0.0199    0.8348   -6.6238 C.3       1 <0>        -0.6046
     13 C8          0.6023    2.5443   -4.2647 C.2       1 <0>         0.5028
     14 O3          0.9739    1.4150   -4.0253 O.2       1 <0>        -0.5124
     15 C9          0.2054    3.4620   -3.1371 C.3       1 <0>         0.0971
     16 N2          0.3554    2.7598   -1.8602 N.am      1 <0>        -0.5618
     17 C10        -0.6189    2.0351   -1.2757 C.2       1 <0>         0.5358
     18 O4         -1.7419    1.8472   -1.6922 O.2       1 <0>        -0.4392
     19 C11        -0.0184    1.5028    0.0103 C.3       1 <0>         0.1604
     20 N3          1.3534    2.0398    0.0001 N.am      1 <0>        -0.7277
     21 C12         1.4764    2.7594   -1.1299 C.2       1 <0>         0.7227
     22 O5          2.4924    3.3438   -1.4513 O.2       1 <0>        -0.5370
     23 C13        -0.7908    2.0224    1.2245 C.3       1 <0>        -0.1638
     24 C14         0.0021   -0.0041    0.0020 C.ar      1 <0>        -0.0877
     25 C15         1.2086   -0.6789    0.0115 C.ar      1 <0>        -0.0723
     26 C16         1.2280   -2.0608    0.0097 C.ar      1 <0>        -0.1017
     27 C17         0.0398   -2.7697   -0.0132 C.ar      1 <0>        -0.0135
     28 C18        -1.1675   -2.0951   -0.0284 C.ar      1 <0>        -0.1009
     29 C19        -1.1864   -0.7117   -0.0208 C.ar      1 <0>        -0.0073
     30 Cl1        -2.7013    0.1360   -0.0394 Cl        1 <0>        -0.0240
     31 Cl2         0.0646   -4.5055   -0.0221 Cl        1 <0>        -0.0483
     32 H2          1.6972    7.3892   -6.1357 H         1 <0>         0.0620
     33 H3          0.1155    7.0326   -5.3626 H         1 <0>         0.0587
     34 H4          0.3439    6.7354   -7.1194 H         1 <0>         0.0589
     35 H5          2.0157    4.9647   -6.6024 H         1 <0>         0.0708
     36 H6          1.7874    5.2619   -4.8457 H         1 <0>         0.0691
     37 H7         -0.6204    4.6646   -5.0577 H         1 <0>         0.0862
     38 H8         -0.3919    4.3673   -6.8144 H         1 <0>         0.0917
     39 H9          3.0536    2.5220   -6.6899 H         1 <0>         0.1013
     40 H10         2.5675    1.3465   -5.4216 H         1 <0>         0.1088
     41 H11         2.8499    0.8911   -8.4508 H         1 <0>         0.1424
     42 H12         3.5887   -0.0454   -7.1077 H         1 <0>         0.1464
     43 H13        -0.3229    0.6402   -5.5968 H         1 <0>         0.1535
     44 H14        -0.8502    1.0080   -7.2741 H         1 <0>         0.1456
     45 H15         0.8515    4.3522   -3.1441 H         1 <0>         0.1320
     46 H16        -0.8430    3.7689   -3.2658 H         1 <0>         0.1291
     47 H17         2.0393    1.8121    0.8294 H         1 <0>         0.4719
     48 H18        -0.3384    1.6242    2.1447 H         1 <0>         0.0846
     49 H19        -1.8390    1.6950    1.1598 H         1 <0>         0.0983
     50 H20        -0.7503    3.1215    1.2419 H         1 <0>         0.0756
     51 H21         2.1362   -0.1260    0.0246 H         1 <0>         0.1450
     52 H22         2.1708   -2.5875    0.0212 H         1 <0>         0.1461
     53 H23        -2.0951   -2.6479   -0.0459 H         1 <0>         0.1499
@<TRIPOS>BOND
     1    1    2 1
     2    1   32 1
     3    1   33 1
     4    1   34 1
     5    2    3 1
     6    2   35 1
     7    2   36 1
     8    3    4 1
     9    3   37 1
    10    3   38 1
    11    4    5 1
    12    4   13 am
    13    5    6 1
    14    5   12 1
    15    5    7 1
    16    7    8 1
    17    7   39 1
    18    7   40 1
    19    8    9 1
    20    8   41 1
    21    8   42 1
    22    9   10 2
    23    9   11 2
    24    9   12 1
    25   12   43 1
    26   12   44 1
    27   13   14 2
    28   13   15 1
    29   15   16 1
    30   15   45 1
    31   15   46 1
    32   16   21 am
    33   16   17 am
    34   17   18 2
    35   17   19 1
    36   19   20 1
    37   19   23 1
    38   19   24 1
    39   20   21 am
    40   20   47 1
    41   21   22 2
    42   23   48 1
    43   23   49 1
    44   23   50 1
    45   24   29 ar
    46   24   25 ar
    47   25   26 ar
    48   25   51 1
    49   26   27 ar
    50   26   52 1
    51   27   28 ar
    52   27   31 1
    53   28   29 ar
    54   28   53 1
    55   29   30 1
@<TRIPOS>MOLECULE
ZINC45915410
   55    58     0     0     0
SMALL
USER_CHARGES

@<TRIPOS>ATOM
      1 C1         -1.2095    1.3614    0.0470 C.3       1 <0>        -0.1233
      2 C2         -0.8768   -0.1083    0.0292 C.ar      1 <0>        -0.0545
      3 C3         -0.5160   -0.7179   -1.1600 C.ar      1 <0>        -0.1259
      4 C4         -0.2105   -2.0621   -1.1849 C.ar      1 <0>        -0.0711
      5 C5         -0.2655   -2.8101   -0.0037 C.ar      1 <0>        -0.1069
      6 C6         -0.6307   -2.1861    1.1943 C.ar      1 <0>        -0.0807
      7 C7         -0.9281   -0.8399    1.2031 C.ar      1 <0>        -0.1203
      8 C8          0.0582   -4.2441   -0.0213 C.2       1 <0>         0.0812
      9 C9          0.1753   -4.9270    1.1441 C.2       1 <0>        -0.2203
     10 C10         0.3219   -6.3799    1.3745 C.2       1 <0>         0.5598
     11 O1          0.3545   -7.1736    0.4528 O.2       1 <0>        -0.4657
     12 N1          0.4161   -6.7727    2.6337 N.am      1 <0>        -0.5749
     13 C11         0.3794   -5.8896    3.6521 C.2       1 <0>         0.5273
     14 O2          0.4541   -6.1102    4.8459 O.2       1 <0>        -0.4135
     15 S1          0.2028   -4.3174    2.8243 S.3       1 <0>        -0.0313
     16 C12         0.5633   -8.2000    2.9291 C.3       1 <0>         0.0817
     17 C13         2.0492   -8.5625    2.9665 C.3       1 <0>         0.1098
     18 N2          2.1964   -9.9899    3.2619 N.am      1 <0>        -0.7245
     19 C14         3.4250  -10.5377    3.3448 C.2       1 <0>         0.5050
     20 O3          4.4087   -9.8490    3.1749 O.2       1 <0>        -0.5208
     21 C15         3.5764  -12.0060    3.6487 C.3       1 <0>         0.1146
     22 N3          4.9992  -12.3531    3.6845 N.am      1 <0>        -0.4166
     23 C16         5.6657  -12.2722    4.8550 C.2       1 <0>         0.5355
     24 O4          5.0954  -11.9157    5.8705 O.2       1 <0>        -0.5192
     25 C17         7.0911  -12.6225    4.8813 C.ar      1 <0>        -0.1221
     26 C18         7.8452  -12.5639    6.0526 C.ar      1 <0>        -0.0551
     27 C19         9.1794  -12.9052    6.0155 C.ar      1 <0>        -0.1114
     28 C20         9.7764  -13.3048    4.8267 C.ar      1 <0>        -0.0890
     29 C21         9.0566  -13.3696    3.6665 C.ar      1 <0>        -0.0965
     30 C22         7.7023  -13.0302    3.6736 C.ar      1 <0>        -0.0613
     31 C23         6.8868  -13.0829    2.4601 C.2       1 <0>         0.1432
     32 N4          5.6277  -12.7639    2.5087 N.2       1 <0>        -0.2356
     33 C24         7.5052  -13.5130    1.1549 C.3       1 <0>        -0.0936
     34 H1         -0.3026    1.9370    0.2324 H         1 <0>         0.0777
     35 H2         -1.6326    1.6499   -0.9152 H         1 <0>         0.0718
     36 H3         -1.9339    1.5604    0.8368 H         1 <0>         0.0716
     37 H4         -0.4741   -0.1391   -2.0708 H         1 <0>         0.1320
     38 H5          0.0701   -2.5365   -2.1137 H         1 <0>         0.1352
     39 H6         -0.6754   -2.7566    2.1102 H         1 <0>         0.1343
     40 H7         -1.2058   -0.3558    2.1277 H         1 <0>         0.1321
     41 H8          0.2026   -4.7536   -0.9626 H         1 <0>         0.1642
     42 H9          0.1113   -8.4193    3.8965 H         1 <0>         0.1071
     43 H10         0.0661   -8.7844    2.1549 H         1 <0>         0.1109
     44 H11         2.5012   -8.3432    1.9991 H         1 <0>         0.0774
     45 H12         2.5464   -7.9781    3.7407 H         1 <0>         0.0748
     46 H13         1.4096  -10.5406    3.3978 H         1 <0>         0.4050
     47 H14         3.1244  -12.2253    4.6160 H         1 <0>         0.1296
     48 H15         3.0792  -12.5904    2.8745 H         1 <0>         0.1273
     49 H16         7.3877  -12.2534    6.9803 H         1 <0>         0.1428
     50 H17         9.7674  -12.8612    6.9203 H         1 <0>         0.1372
     51 H18        10.8239  -13.5675    4.8189 H         1 <0>         0.1363
     52 H19         9.5330  -13.6820    2.7490 H         1 <0>         0.1427
     53 H20         7.4104  -14.5934    1.0465 H         1 <0>         0.0906
     54 H21         6.9925  -13.0187    0.3296 H         1 <0>         0.0872
     55 H22         8.5598  -13.2379    1.1444 H         1 <0>         0.0879
@<TRIPOS>BOND
     1    1    2 1
     2    1   34 1
     3    1   35 1
     4    1   36 1
     5    2    7 ar
     6    2    3 ar
     7    3    4 ar
     8    3   37 1
     9    4    5 ar
    10    4   38 1
    11    5    6 ar
    12    5    8 1
    13    6    7 ar
    14    6   39 1
    15    7   40 1
    16    8    9 2
    17    8   41 1
    18    9   15 1
    19    9   10 1
    20   10   11 2
    21   10   12 am
    22   12   13 am
    23   12   16 1
    24   13   14 2
    25   13   15 1
    26   16   17 1
    27   16   42 1
    28   16   43 1
    29   17   18 1
    30   17   44 1
    31   17   45 1
    32   18   19 am
    33   18   46 1
    34   19   20 2
    35   19   21 1
    36   21   22 1
    37   21   47 1
    38   21   48 1
    39   22   32 1
    40   22   23 am
    41   23   24 2
    42   23   25 1
    43   25   30 ar
    44   25   26 ar
    45   26   27 ar
    46   26   49 1
    47   27   28 ar
    48   27   50 1
    49   28   29 ar
    50   28   51 1
    51   29   30 ar
    52   29   52 1
    53   30   31 1
    54   31   32 2
    55   31   33 1
    56   33   53 1
    57   33   54 1
    58   33   55 1
@<TRIPOS>MOLECULE
ZINC60391828
   51    54     0     0     0
SMALL
USER_CHARGES

@<TRIPOS>ATOM
      1 C1          0.0016    1.3962    0.2271 C.ar      1 <0>        -0.0918
      2 C2          0.2322    0.2960    1.0348 C.ar      1 <0>        -0.1287
      3 C3          1.4288   -0.3840    0.9548 C.ar      1 <0>        -0.0445
      4 C4          2.4113    0.0406    0.0535 C.ar      1 <0>        -0.1033
      5 C5          2.1701    1.1534   -0.7597 C.ar      1 <0>        -0.0804
      6 C6          0.9684    1.8227   -0.6670 C.ar      1 <0>        -0.1319
      7 C7          3.6904   -0.6783   -0.0381 C.2       1 <0>         0.0858
      8 C8          3.7163   -2.0305    0.0568 C.2       1 <0>        -0.2187
      9 C9          2.5964   -2.9954    0.0788 C.2       1 <0>         0.5505
     10 O1          1.4375   -2.6320    0.0067 O.2       1 <0>        -0.4522
     11 N1          2.9190   -4.2739    0.1805 N.am      1 <0>        -0.5749
     12 C10         4.2048   -4.6723    0.2602 C.2       1 <0>         0.5528
     13 O2          4.6401   -5.8039    0.3566 O.2       1 <0>        -0.4090
     14 S1          5.1143   -3.1377    0.1817 S.3       1 <0>        -0.0471
     15 C11         1.8549   -5.2805    0.2077 C.3       1 <0>         0.0830
     16 C12         1.5422   -5.7307   -1.2207 C.3       1 <0>         0.1073
     17 N2          0.4781   -6.7373   -1.1935 N.am      1 <0>        -0.7260
     18 C13         0.0353   -7.2811   -2.3445 C.2       1 <0>         0.5260
     19 O3          0.5177   -6.9371   -3.4027 O.2       1 <0>        -0.5302
     20 C14        -1.0593   -8.3165   -2.3165 C.3       1 <0>        -0.1589
     21 C15        -1.3720   -8.7668   -3.7449 C.3       1 <0>         0.1270
     22 N3         -2.4361   -9.7734   -3.7177 N.am      1 <0>        -0.5779
     23 C16        -2.2281  -11.0982   -3.6116 C.2       1 <0>         0.5739
     24 O4         -1.1451  -11.6410   -3.5251 O.2       1 <0>        -0.4569
     25 C17        -3.5382  -11.7826   -3.6179 C.ar      1 <0>        -0.1414
     26 C18        -3.9386  -13.1068   -3.5380 C.ar      1 <0>        -0.0434
     27 C19        -5.2885  -13.4198   -3.5732 C.ar      1 <0>        -0.0941
     28 C20        -6.2368  -12.4205   -3.6874 C.ar      1 <0>        -0.0942
     29 C21        -5.8510  -11.0916   -3.7682 C.ar      1 <0>        -0.0435
     30 C22        -4.5051  -10.7637   -3.7343 C.ar      1 <0>        -0.1415
     31 C23        -3.7501   -9.4942   -3.7898 C.2       1 <0>         0.5741
     32 O5         -4.2348   -8.3848   -3.8863 O.2       1 <0>        -0.4572
     33 H1         -0.9395    1.9221    0.2918 H         1 <0>         0.1254
     34 H2         -0.5273   -0.0304    1.7299 H         1 <0>         0.1255
     35 H3          1.6075   -1.2418    1.5861 H         1 <0>         0.1215
     36 H4          2.9236    1.4876   -1.4576 H         1 <0>         0.1295
     37 H5          0.7806    2.6818   -1.2939 H         1 <0>         0.1281
     38 H6          4.6094   -0.1293   -0.1810 H         1 <0>         0.1592
     39 H7          2.1812   -6.1383    0.7958 H         1 <0>         0.1071
     40 H8          0.9598   -4.8509    0.6575 H         1 <0>         0.1109
     41 H9          1.2159   -4.8729   -1.8088 H         1 <0>         0.0785
     42 H10         2.4373   -6.1603   -1.6705 H         1 <0>         0.0765
     43 H11         0.0923   -7.0124   -0.3472 H         1 <0>         0.4047
     44 H12        -0.7330   -9.1743   -1.7284 H         1 <0>         0.1045
     45 H13        -1.9544   -7.8870   -1.8667 H         1 <0>         0.1043
     46 H14        -1.6983   -7.9090   -4.3330 H         1 <0>         0.1079
     47 H15        -0.4769   -9.1964   -4.1947 H         1 <0>         0.1080
     48 H16        -3.2021  -13.8916   -3.4490 H         1 <0>         0.1436
     49 H17        -5.6015  -14.4516   -3.5114 H         1 <0>         0.1441
     50 H18        -7.2855  -12.6770   -3.7141 H         1 <0>         0.1441
     51 H19        -6.5962  -10.3151   -3.8577 H         1 <0>         0.1435
@<TRIPOS>BOND
     1    1    6 ar
     2    1    2 ar
     3    1   33 1
     4    2    3 ar
     5    2   34 1
     6    3    4 ar
     7    3   35 1
     8    4    5 ar
     9    4    7 1
    10    5    6 ar
    11    5   36 1
    12    6   37 1
    13    7    8 2
    14    7   38 1
    15    8   14 1
    16    8    9 1
    17    9   10 2
    18    9   11 am
    19   11   12 am
    20   11   15 1
    21   12   13 2
    22   12   14 1
    23   15   16 1
    24   15   39 1
    25   15   40 1
    26   16   17 1
    27   16   41 1
    28   16   42 1
    29   17   18 am
    30   17   43 1
    31   18   19 2
    32   18   20 1
    33   20   21 1
    34   20   44 1
    35   20   45 1
    36   21   22 1
    37   21   46 1
    38   21   47 1
    39   22   31 am
    40   22   23 am
    41   23   24 2
    42   23   25 1
    43   25   30 ar
    44   25   26 ar
    45   26   27 ar
    46   26   48 1
    47   27   28 ar
    48   27   49 1
    49   28   29 ar
    50   28   50 1
    51   29   30 ar
    52   29   51 1
    53   30   31 1
    54   31   32 2
@<TRIPOS>MOLECULE
ZINC65319625
   55    58     0     0     0
SMALL
USER_CHARGES

@<TRIPOS>ATOM
      1 C1         -0.0187    1.5258    0.0104 C.3       1 <0>        -0.1703
      2 C2          0.0021   -0.0041    0.0020 C.3       1 <0>         0.0881
      3 N1          0.6878   -0.4765   -1.2033 N.am      1 <0>        -0.5142
      4 C3         -0.0093   -0.7027   -2.3438 C.2       1 <0>         0.5966
      5 O1         -1.2149   -0.5184   -2.3891 O.2       1 <0>        -0.5259
      6 C4          0.6853   -1.1484   -3.4564 C.2       1 <0>        -0.4195
      7 C5          2.0760   -1.3656   -3.4211 C.2       1 <0>         0.4173
      8 N2          2.6971   -1.1144   -2.2373 N.2       1 <0>        -0.5212
      9 C6          2.0361   -0.6882   -1.1915 C.2       1 <0>         0.3805
     10 S1          2.9241   -0.3817    0.2992 S.3       1 <0>         0.0907
     11 C7          4.6421   -0.7829   -0.1230 C.3       1 <0>        -0.1518
     12 C8          5.5203   -0.5609    1.0814 C.2       1 <0>         0.5380
     13 O2          5.0350   -0.1705    2.1220 O.2       1 <0>        -0.5198
     14 N3          6.8450   -0.7963    1.0020 N.am      1 <0>        -0.7207
     15 C9          7.6987   -0.5805    2.1728 C.3       1 <0>         0.2052
     16 C10         9.1259   -0.9138    1.8221 C.2       1 <0>        -0.0462
     17 C11        10.0373   -0.0536    1.3334 C.2       1 <0>        -0.1777
     18 C12        11.2337   -0.7845    1.1508 C.2       1 <0>        -0.2186
     19 C13        10.9819   -2.0476    1.5388 C.2       1 <0>        -0.0237
     20 O3          9.7053   -2.1187    1.9499 O.3       1 <0>        -0.1711
     21 N4          2.5825   -1.7942   -4.5781 N.2       1 <0>        -0.5965
     22 C14         1.8323   -1.9889   -5.6410 C.2       1 <0>         0.3675
     23 S2          0.2814   -1.5813   -5.1269 S.3       1 <0>         0.1963
     24 N5          2.2249   -2.4251   -6.8874 N.pl3     1 <0>        -0.5480
     25 C15         1.2433   -2.5807   -7.9695 C.3       1 <0>         0.1176
     26 C16         1.7258   -1.7907   -9.1902 C.3       1 <0>        -0.1322
     27 C17         3.1420   -2.2404   -9.5567 C.3       1 <0>        -0.0943
     28 C18         4.0888   -1.9518   -8.3895 C.3       1 <0>        -0.1319
     29 C19         3.6341   -2.7377   -7.1615 C.3       1 <0>         0.1201
     30 C20         3.6140   -1.4782  -10.7965 C.3       1 <0>        -0.1482
     31 H1          1.0039    1.9031    0.0027 H         1 <0>         0.0670
     32 H2         -0.5459    1.8868   -0.8726 H         1 <0>         0.0655
     33 H3         -0.5289    1.8773    0.9072 H         1 <0>         0.0842
     34 H4          0.5293   -0.3651    0.8851 H         1 <0>         0.1008
     35 H5         -1.0205   -0.3814    0.0098 H         1 <0>         0.1093
     36 H6          4.7061   -1.8262   -0.4320 H         1 <0>         0.1327
     37 H7          4.9751   -0.1412   -0.9387 H         1 <0>         0.1329
     38 H8          7.2331   -1.1085    0.1697 H         1 <0>         0.4088
     39 H9          7.6347    0.4628    2.4819 H         1 <0>         0.1043
     40 H10         7.3657   -1.2221    2.9886 H         1 <0>         0.0904
     41 H11         9.8844    0.9942    1.1208 H         1 <0>         0.1522
     42 H12        12.1701   -0.4021    0.7721 H         1 <0>         0.1523
     43 H13        11.6877   -2.8649    1.5257 H         1 <0>         0.2066
     44 H14         1.1506   -3.6351   -8.2299 H         1 <0>         0.0873
     45 H15         0.2767   -2.1962   -7.6442 H         1 <0>         0.0856
     46 H16         1.0566   -1.9752  -10.0306 H         1 <0>         0.0865
     47 H17         1.7313   -0.7263   -8.9557 H         1 <0>         0.0726
     48 H18         3.1403   -3.3100   -9.7670 H         1 <0>         0.0760
     49 H19         5.1015   -2.2508   -8.6600 H         1 <0>         0.0828
     50 H20         4.0721   -0.8858   -8.1625 H         1 <0>         0.0695
     51 H21         4.2443   -2.4568   -6.3031 H         1 <0>         0.0995
     52 H22         3.7407   -3.8052   -7.3545 H         1 <0>         0.0755
     53 H23         3.6152   -0.4085  -10.5867 H         1 <0>         0.0555
     54 H24         4.6227   -1.7983  -11.0576 H         1 <0>         0.0580
     55 H25         2.9405   -1.6846  -11.6282 H         1 <0>         0.0579
@<TRIPOS>BOND
     1    1    2 1
     2    1   31 1
     3    1   32 1
     4    1   33 1
     5    2    3 1
     6    2   34 1
     7    2   35 1
     8    3    9 1
     9    3    4 am
    10    4    5 2
    11    4    6 1
    12    6   23 1
    13    6    7 2
    14    7    8 1
    15    7   21 1
    16    8    9 2
    17    9   10 1
    18   10   11 1
    19   11   12 1
    20   11   36 1
    21   11   37 1
    22   12   13 2
    23   12   14 am
    24   14   15 1
    25   14   38 1
    26   15   16 1
    27   15   39 1
    28   15   40 1
    29   16   20 1
    30   16   17 2
    31   17   18 1
    32   17   41 1
    33   18   19 2
    34   18   42 1
    35   19   20 1
    36   19   43 1
    37   21   22 2
    38   22   23 1
    39   22   24 1
    40   24   29 1
    41   24   25 1
    42   25   26 1
    43   25   44 1
    44   25   45 1
    45   26   27 1
    46   26   46 1
    47   26   47 1
    48   27   28 1
    49   27   30 1
    50   27   48 1
    51   28   29 1
    52   28   49 1
    53   28   50 1
    54   29   51 1
    55   29   52 1
    56   30   53 1
    57   30   54 1
    58   30   55 1
@<TRIPOS>MOLECULE
ZINC16734717
   61    65     0     0     0
SMALL
USER_CHARGES
(5R)-3-hydroxy-5-(4-hydroxy-3-methoxy-phenyl)-4-[(2S)-2-methyl2,3-dihydrobenzofuran-5-carbonyl]-1-[[(2R)-tetrahydrofuran-2-yl]methyl]-5H-pyrrol-2-one
@<TRIPOS>ATOM
      1 C1          2.4285   -6.6622   -6.5896 C.3       1 <0>        -0.1736
      2 C2          3.1481   -6.8149   -5.2480 C.3       1 <0>         0.0758
      3 H1          3.4165   -7.8566   -5.0720 H         1 <0>         0.1211
      4 C3          4.4011   -5.9094   -5.1922 C.3       1 <0>        -0.1070
      5 C4          3.8501   -4.6528   -4.5456 C.ar      1 <0>        -0.1858
      6 C5          4.3403   -3.3738   -4.4559 C.ar      1 <0>        -0.0071
      7 C6          3.5987   -2.3885   -3.7953 C.ar      1 <0>        -0.1915
      8 C7          2.3639   -2.7208   -3.2293 C.ar      1 <0>        -0.0339
      9 C8          1.8811   -4.0037   -3.3281 C.ar      1 <0>        -0.1508
     10 C9          2.6218   -4.9898   -3.9830 C.ar      1 <0>         0.1448
     11 O1          2.3383   -6.3058   -4.1751 O.3       1 <0>        -0.2941
     12 C10         4.1183   -1.0108   -3.6913 C.2       1 <0>         0.4784
     13 O2          5.1639   -0.7118   -4.2376 O.2       1 <0>        -0.4303
     14 C11         3.3746   -0.0023   -2.9296 C.2       1 <0>        -0.2314
     15 C12         2.7723    1.1028   -3.4271 C.2       1 <0>         0.0977
     16 C13         2.1362    1.8487   -2.3210 C.2       1 <0>         0.5307
     17 O3          1.5162    2.8861   -2.4455 O.2       1 <0>        -0.4934
     18 N1          2.3451    1.2091   -1.1559 N.am      1 <0>        -0.5904
     19 C14         3.1388    0.0070   -1.4373 C.3       1 <0>         0.2283
     20 H2          2.5861   -0.8847   -1.1418 H         1 <0>         0.1129
     21 C15         4.4530    0.0702   -0.7025 C.ar      1 <0>        -0.0718
     22 C16         5.1467    1.2639   -0.6312 C.ar      1 <0>        -0.1122
     23 C17         6.3499    1.3283    0.0466 C.ar      1 <0>        -0.1031
     24 C18         6.8687    0.1922    0.6466 C.ar      1 <0>         0.0862
     25 C19         6.1733   -1.0107    0.5700 C.ar      1 <0>         0.1069
     26 C20         4.9650   -1.0670   -0.1060 C.ar      1 <0>        -0.1767
     27 O4          6.6781   -2.1284    1.1577 O.3       1 <0>        -0.3051
     28 C21         5.8578   -3.2983    1.1386 C.3       1 <0>         0.0237
     29 O5          8.0552    0.2524    1.3086 O.3       1 <0>        -0.4860
     30 C22         1.8699    1.6396    0.1613 C.3       1 <0>         0.1384
     31 C23         0.4881    1.0387    0.4264 C.3       1 <0>         0.0604
     32 H3          0.5367   -0.0497    0.3923 H         1 <0>         0.0745
     33 C24        -0.0487    1.5103    1.8012 C.3       1 <0>        -0.1493
     34 C25        -1.5819    1.3635    1.5823 C.3       1 <0>        -0.1547
     35 C26        -1.7354    1.7183    0.0877 C.3       1 <0>         0.0501
     36 O6         -0.4605    1.5258   -0.5361 O.3       1 <0>        -0.3667
     37 O7          2.7548    1.4667   -4.7301 O.3       1 <0>        -0.4240
     38 H4          3.1030   -6.9445   -7.3979 H         1 <0>         0.0787
     39 H5          1.5506   -7.3080   -6.6066 H         1 <0>         0.0708
     40 H6          2.1192   -5.6251   -6.7199 H         1 <0>         0.0635
     41 H7          4.7755   -5.6999   -6.1942 H         1 <0>         0.0970
     42 H8          5.1784   -6.3574   -4.5731 H         1 <0>         0.0949
     43 H9          5.2962   -3.1286   -4.8947 H         1 <0>         0.1374
     44 H10         1.7863   -1.9662   -2.7162 H         1 <0>         0.1373
     45 H11         0.9244   -4.2518   -2.8927 H         1 <0>         0.1368
     46 H12         4.7458    2.1491   -1.1025 H         1 <0>         0.1251
     47 H13         6.8876    2.2632    0.1048 H         1 <0>         0.1400
     48 H14         4.4231   -1.9993   -0.1667 H         1 <0>         0.1360
     49 H15         4.8883   -3.0696    1.5813 H         1 <0>         0.0572
     50 H16         5.7184   -3.6276    0.1089 H         1 <0>         0.0563
     51 H17         6.3409   -4.0902    1.7110 H         1 <0>         0.1031
     52 H18         8.8253    0.0705    0.7528 H         1 <0>         0.3903
     53 H19         1.8039    2.7273    0.1860 H         1 <0>         0.0980
     54 H20         2.5668    1.3004    0.9277 H         1 <0>         0.1017
     55 H21         0.2995    0.8593    2.6032 H         1 <0>         0.0873
     56 H22         0.2231    2.5480    1.9942 H         1 <0>         0.0836
     57 H23        -2.1319    2.0676    2.2066 H         1 <0>         0.0841
     58 H24        -1.9079    0.3412    1.7738 H         1 <0>         0.0775
     59 H25        -2.0443    2.7585   -0.0156 H         1 <0>         0.0702
     60 H26        -2.4753    1.0641   -0.3736 H         1 <0>         0.0677
     61 H27         2.2443    2.3207   -4.8308 H         1 <0>         0.4148
@<TRIPOS>BOND
     1    1    2 1
     2    1   38 1
     3    1   39 1
     4    1   40 1
     5    2    3 1
     6    2   11 1
     7    2    4 1
     8    4    5 1
     9    4   41 1
    10    4   42 1
    11    5   10 ar
    12    5    6 ar
    13    6    7 ar
    14    6   43 1
    15    7    8 ar
    16    7   12 1
    17    8    9 ar
    18    8   44 1
    19    9   10 ar
    20    9   45 1
    21   10   11 1
    22   12   13 2
    23   12   14 1
    24   14   19 1
    25   14   15 2
    26   15   16 1
    27   15   37 1
    28   16   17 2
    29   16   18 am
    30   18   19 1
    31   18   30 1
    32   19   20 1
    33   19   21 1
    34   21   26 ar
    35   21   22 ar
    36   22   23 ar
    37   22   46 1
    38   23   24 ar
    39   23   47 1
    40   24   25 ar
    41   24   29 1
    42   25   26 ar
    43   25   27 1
    44   26   48 1
    45   27   28 1
    46   28   49 1
    47   28   50 1
    48   28   51 1
    49   29   52 1
    50   30   31 1
    51   30   53 1
    52   30   54 1
    53   31   32 1
    54   31   36 1
    55   31   33 1
    56   33   34 1
    57   33   55 1
    58   33   56 1
    59   34   35 1
    60   34   57 1
    61   34   58 1
    62   35   36 1
    63   35   59 1
    64   35   60 1
    65   37   61 1
@<TRIPOS>MOLECULE
ZINC34792750
   51    53     0     0     0
SMALL
USER_CHARGES

@<TRIPOS>ATOM
      1 C1         -0.4926    1.4242    0.0290 C.3       1 <0>         0.0635
      2 N1         -0.3082   -0.0291    0.0152 N.am      1 <0>        -0.5262
      3 C2         -1.4163   -0.8214    0.1127 C.2       1 <0>         0.1804
      4 C3         -1.3168   -2.1661    0.1056 C.2       1 <0>        -0.2885
      5 C4          0.0680   -2.7695   -0.0143 C.3       1 <0>         0.2541
      6 H1          0.2344   -3.4046    0.8558 H         1 <0>         0.1002
      7 N2          1.1980   -1.8304   -0.1139 N.am      1 <0>        -0.7082
      8 C5          0.9375   -0.5082   -0.0978 C.2       1 <0>         0.7125
      9 O1          1.8633    0.2749   -0.1838 O.2       1 <0>        -0.5532
     10 C6          0.0871   -3.6497   -1.2374 C.ar      1 <0>        -0.0816
     11 C7         -0.8858   -3.5044   -2.2088 C.ar      1 <0>        -0.0718
     12 C8         -0.8691   -4.3114   -3.3309 C.ar      1 <0>        -0.0988
     13 C9          0.1203   -5.2649   -3.4829 C.ar      1 <0>        -0.0923
     14 C10         1.0943   -5.4116   -2.5121 C.ar      1 <0>        -0.0298
     15 C11         1.0811   -4.5990   -1.3908 C.ar      1 <0>        -0.0228
     16 Cl1         2.3075   -4.7766   -0.1750 Cl        1 <0>        -0.0452
     17 Cl2         2.3369   -6.6089   -2.7024 Cl        1 <0>        -0.0442
     18 C12        -2.5939   -2.7529    0.2180 C.2       1 <0>         0.5761
     19 O2         -2.8006   -3.9526    0.2379 O.2       1 <0>        -0.5162
     20 N3         -3.5543   -1.8145    0.3009 N.am      1 <0>        -0.6204
     21 C13        -2.8894   -0.5043    0.2411 C.3       1 <0>         0.1399
     22 C14        -4.9942   -2.0533    0.4266 C.3       1 <0>         0.1591
     23 C15        -5.3703   -2.1345    1.9075 C.3       1 <0>        -0.1621
     24 C16        -6.8515   -2.3802    2.0369 C.2       1 <0>         0.5194
     25 O3         -7.5386   -2.4805    1.0426 O.2       1 <0>        -0.5398
     26 N4         -7.4125   -2.4884    3.2575 N.am      1 <0>        -0.7253
     27 C17        -8.8524   -2.7273    3.3833 C.3       1 <0>         0.1211
     28 C18        -9.2285   -2.8084    4.8641 C.3       1 <0>         0.0460
     29 O4         -8.9999   -1.5412    5.4838 O.3       1 <0>        -0.3908
     30 C19        -9.3211   -1.5085    6.8758 C.3       1 <0>         0.0301
     31 H2          0.4769    1.9143   -0.0608 H         1 <0>         0.1086
     32 H3         -1.1270    1.7179   -0.8073 H         1 <0>         0.0784
     33 H4         -0.9648    1.7216    0.9653 H         1 <0>         0.0785
     34 H5          2.1084   -2.1559   -0.1928 H         1 <0>         0.4342
     35 H6         -1.6595   -2.7603   -2.0906 H         1 <0>         0.1320
     36 H7         -1.6296   -4.1971   -4.0892 H         1 <0>         0.1412
     37 H8          0.1323   -5.8956   -4.3596 H         1 <0>         0.1453
     38 H9         -3.0777    0.0585    1.1554 H         1 <0>         0.1143
     39 H10        -3.2337    0.0563   -0.6280 H         1 <0>         0.1159
     40 H11        -5.5406   -1.2352   -0.0427 H         1 <0>         0.0947
     41 H12        -5.2512   -2.9913   -0.0654 H         1 <0>         0.1003
     42 H13        -4.8239   -2.9526    2.3768 H         1 <0>         0.1015
     43 H14        -5.1132   -1.1964    2.3996 H         1 <0>         0.0982
     44 H15        -6.8629   -2.4082    4.0528 H         1 <0>         0.4047
     45 H16        -9.3988   -1.9091    2.9140 H         1 <0>         0.0787
     46 H17        -9.1095   -3.6653    2.8912 H         1 <0>         0.0855
     47 H18       -10.2815   -3.0739    4.9576 H         1 <0>         0.0691
     48 H19        -8.6177   -3.5674    5.3531 H         1 <0>         0.0582
     49 H20        -9.1200   -0.5131    7.2718 H         1 <0>         0.0884
     50 H21       -10.3761   -1.7470    7.0110 H         1 <0>         0.0439
     51 H22        -8.7122   -2.2405    7.4065 H         1 <0>         0.0430
@<TRIPOS>BOND
     1    1    2 1
     2    1   31 1
     3    1   32 1
     4    1   33 1
     5    2    8 am
     6    2    3 1
     7    3   21 1
     8    3    4 2
     9    4    5 1
    10    4   18 1
    11    5    6 1
    12    5    7 1
    13    5   10 1
    14    7    8 am
    15    7   34 1
    16    8    9 2
    17   10   15 ar
    18   10   11 ar
    19   11   12 ar
    20   11   35 1
    21   12   13 ar
    22   12   36 1
    23   13   14 ar
    24   13   37 1
    25   14   15 ar
    26   14   17 1
    27   15   16 1
    28   18   19 2
    29   18   20 am
    30   20   21 1
    31   20   22 1
    32   21   38 1
    33   21   39 1
    34   22   23 1
    35   22   40 1
    36   22   41 1
    37   23   24 1
    38   23   42 1
    39   23   43 1
    40   24   25 2
    41   24   26 am
    42   26   27 1
    43   26   44 1
    44   27   28 1
    45   27   45 1
    46   27   46 1
    47   28   29 1
    48   28   47 1
    49   28   48 1
    50   29   30 1
    51   30   49 1
    52   30   50 1
    53   30   51 1
@<TRIPOS>MOLECULE
ZINC39545035
   57    60     0     0     0
SMALL
NO_CHARGES

@<TRIPOS>ATOM
      1 C1          0.6670    0.9622   -1.9270 C.3       1 <0>        -0.1459
      2 C2          0.4238   -0.2682   -1.0507 C.3       1 <0>        -0.1069
      3 C3          1.5118   -0.3536    0.0216 C.3       1 <0>        -0.1436
      4 C4         -0.9462   -0.1533   -0.3792 C.3       1 <0>         0.0971
      5 N1         -1.9967   -0.2215   -1.3980 N.am      1 <0>        -0.8875
      6 C5         -2.4338   -1.4187   -1.8362 C.2       1 <0>         0.5191
      7 O1         -1.8967   -2.4370   -1.4548 O.2       1 <0>        -0.5345
      8 C6         -3.5898   -1.4920   -2.8002 C.3       1 <0>        -0.0366
      9 H1         -3.4551   -0.7796   -3.6141 H         1 <0>         0.2210
     10 C7         -4.9270   -1.2349   -2.0673 C.3       1 <0>        -0.2001
     11 C8         -5.4492   -2.6168   -1.6969 C.2       1 <0>         0.3555
     12 C9         -4.3914   -3.5727   -2.1939 C.3       1 <0>         0.2122
     13 N2         -4.9198   -4.8691   -2.5674 N.pl3     1 <0>        -0.7292
     14 C10        -5.4704   -5.0716   -3.8352 C.ar      1 <0>         0.2013
     15 C11        -6.1326   -6.2537   -4.1335 C.ar      1 <0>        -0.1646
     16 C12        -6.6587   -6.4460   -5.3964 C.ar      1 <0>        -0.0605
     17 C13        -6.5218   -5.4607   -6.3573 C.ar      1 <0>        -0.1531
     18 C14        -5.8674   -4.2811   -6.0585 C.ar      1 <0>        -0.0544
     19 C15        -5.3441   -4.0764   -4.7933 C.ar      1 <0>        -0.1917
     20 C16        -4.6693   -2.7774   -4.4681 C.3       1 <0>         0.0361
     21 N3         -3.7424   -2.8833   -3.3364 N.4       1 <0>        -0.3696
     22 O2         -6.4808   -2.8880   -1.1307 O.2       1 <0>        -0.3665
     23 S1         -2.6470    1.1726   -2.0112 S.o2      1 <0>         2.4272
     24 O3         -1.8324    2.2398   -1.5458 O.2       1 <0>        -1.0008
     25 O4         -2.8796    0.9385   -3.3934 O.2       1 <0>        -1.0394
     26 O5         -4.0130    1.3542   -1.3650 O.3       1 <0>        -0.6795
     27 C17        -3.9620    1.7754   -0.0739 C.ar      1 <0>         0.1027
     28 C18        -3.9062    0.8492    0.9575 C.ar      1 <0>        -0.1647
     29 C19        -3.8540    1.2799    2.2690 C.ar      1 <0>        -0.0935
     30 C20        -3.8578    2.6328    2.5543 C.ar      1 <0>        -0.1502
     31 C21        -3.9139    3.5579    1.5282 C.ar      1 <0>        -0.0953
     32 C22        -3.9600    3.1324    0.2147 C.ar      1 <0>        -0.1260
     33 H2          1.6641    0.9060   -2.3636 H         1 <0>         0.0507
     34 H3         -0.0769    0.9940   -2.7231 H         1 <0>         0.0384
     35 H4          0.5869    1.8631   -1.3187 H         1 <0>         0.0741
     36 H5          0.4514   -1.1656   -1.6687 H         1 <0>         0.0694
     37 H6          1.4842    0.5438    0.6396 H         1 <0>         0.0582
     38 H7          1.3386   -1.2302    0.6459 H         1 <0>         0.0546
     39 H8          2.4878   -0.4354   -0.4568 H         1 <0>         0.0558
     40 H9         -1.0734   -0.9719    0.3292 H         1 <0>         0.0764
     41 H10        -1.0133    0.7978    0.1489 H         1 <0>         0.0964
     42 H11        -4.7581   -0.6410   -1.1690 H         1 <0>         0.1540
     43 H12        -3.6523   -3.7214   -1.4067 H         1 <0>         0.1786
     44 H13        -6.2361   -7.0214   -3.3809 H         1 <0>         0.1328
     45 H14        -7.1763   -7.3640   -5.6328 H         1 <0>         0.1335
     46 H15        -6.9282   -5.6142   -7.3460 H         1 <0>         0.1316
     47 H16        -5.7635   -3.5166   -6.8143 H         1 <0>         0.1348
     48 H17        -4.1139   -2.4410   -5.3436 H         1 <0>         0.1416
     49 H18        -5.4314   -2.0349   -4.2315 H         1 <0>         0.1308
     50 H19        -5.6303   -0.7296   -2.7292 H         1 <0>         0.1479
     51 H20        -3.9039   -0.2077    0.7352 H         1 <0>         0.1153
     52 H21        -3.8105    0.5593    3.0723 H         1 <0>         0.1228
     53 H22        -3.8173    2.9676    3.5803 H         1 <0>         0.1209
     54 H23        -3.9171    4.6141    1.7536 H         1 <0>         0.1238
     55 H24        -3.9993    3.8554   -0.5866 H         1 <0>         0.1230
     56 H25        -4.8913   -5.6018   -1.9323 H         1 <0>         0.4273
     57 H26        -2.8590   -3.3002   -3.5892 H         1 <0>         0.4290
@<TRIPOS>BOND
     1    1    2 1
     2    1   33 1
     3    1   34 1
     4    1   35 1
     5    2    3 1
     6    2    4 1
     7    2   36 1
     8    3   37 1
     9    3   38 1
    10    3   39 1
    11    4    5 1
    12    4   40 1
    13    4   41 1
    14    5    6 am
    15    5   23 1
    16    6    7 2
    17    6    8 1
    18    8    9 1
    19    8   21 1
    20    8   10 1
    21   10   11 1
    22   10   42 1
    23   10   50 1
    24   11   12 1
    25   11   22 2
    26   12   21 1
    27   12   13 1
    28   12   43 1
    29   13   14 1
    30   13   56 1
    31   14   19 ar
    32   14   15 ar
    33   15   16 ar
    34   15   44 1
    35   16   17 ar
    36   16   45 1
    37   17   18 ar
    38   17   46 1
    39   18   19 ar
    40   18   47 1
    41   19   20 1
    42   20   21 1
    43   20   48 1
    44   20   49 1
    45   21   57 1
    46   23   24 2
    47   23   25 2
    48   23   26 1
    49   26   27 1
    50   27   32 ar
    51   27   28 ar
    52   28   29 ar
    53   28   51 1
    54   29   30 ar
    55   29   52 1
    56   30   31 ar
    57   30   53 1
    58   31   32 ar
    59   31   54 1
    60   32   55 1
@<TRIPOS>MOLECULE
ZINC59293407
   49    51     0     0     0
SMALL
USER_CHARGES

@<TRIPOS>ATOM
      1 C1          0.0384    1.5298    0.0640 C.3       1 <0>        -0.1634
      2 C2         -0.0289    0.0036   -0.0204 C.3       1 <0>         0.1060
      3 N1          0.4779   -0.4363   -1.3226 N.am      1 <0>        -0.5378
      4 C3         -0.3004   -0.5001   -2.4799 C.ar      1 <0>         0.1887
      5 C4         -1.6429   -0.1936   -2.6930 C.ar      1 <0>        -0.1386
      6 C5         -2.1966   -0.3396   -3.9478 C.ar      1 <0>        -0.0455
      7 C6         -1.4253   -0.7908   -5.0044 C.ar      1 <0>        -0.1210
      8 C7         -0.0906   -1.0976   -4.8004 C.ar      1 <0>        -0.0207
      9 C8          0.4641   -0.9532   -3.5486 C.ar      1 <0>        -0.1370
     10 C9          1.8489   -1.1955   -3.0020 C.3       1 <0>         0.1097
     11 C10         1.7481   -0.8198   -1.5425 C.2       1 <0>         0.5587
     12 O1          2.6422   -0.8586   -0.7239 O.2       1 <0>        -0.4818
     13 C11         2.2242   -2.6421   -3.1495 C.2       1 <0>        -0.2540
     14 C12         3.1278   -3.0262   -4.0861 C.2       1 <0>         0.4434
     15 O2          3.7109   -2.1317   -4.9052 O.3       1 <0>        -0.2298
     16 C13         3.7070   -0.8267   -4.5916 C.2       1 <0>         0.2007
     17 C14         2.8483   -0.3168   -3.6964 C.2       1 <0>        -0.2396
     18 C15         2.8850    1.0683   -3.4025 C.2       1 <0>         0.5197
     19 O3          2.1790    1.5222   -2.5217 O.2       1 <0>        -0.4903
     20 O4          3.7028    1.8844   -4.0993 O.3       1 <0>        -0.3371
     21 C16         3.6065    3.2843   -3.8290 C.3       1 <0>         0.0626
     22 C17         4.5132    4.0533   -4.7920 C.3       1 <0>         0.0615
     23 O5          4.0283    3.9003   -6.1275 O.3       1 <0>        -0.3862
     24 C18         4.8688    4.4889   -7.1220 C.3       1 <0>         0.0301
     25 C19         4.6947    0.0914   -5.2645 C.3       1 <0>        -0.1128
     26 N2          3.4541   -4.3547   -4.2003 N.pl3     1 <0>        -0.8189
     27 C20         1.6241   -3.6229   -2.2960 C.1       1 <0>         0.2663
     28 N3          1.1480   -4.4010   -1.6190 N.1       1 <0>        -0.4213
     29 Br1        -2.1920   -0.9882   -6.7217 Br        1 <0>        -0.0431
     30 H1          1.0801    1.8496    0.0373 H         1 <0>         0.0658
     31 H2         -0.4967    1.9643   -0.7804 H         1 <0>         0.0612
     32 H3         -0.4202    1.8628    0.9950 H         1 <0>         0.0693
     33 H4          0.5800   -0.4313    0.7722 H         1 <0>         0.0910
     34 H5         -1.0628   -0.3214    0.0958 H         1 <0>         0.0841
     35 H6         -2.2515    0.1590   -1.8734 H         1 <0>         0.1364
     36 H7         -3.2379   -0.1010   -4.1064 H         1 <0>         0.1419
     37 H8          0.5146   -1.4505   -5.6224 H         1 <0>         0.1342
     38 H9          2.5750    3.6101   -3.9629 H         1 <0>         0.0796
     39 H10         3.9186    3.4785   -2.8028 H         1 <0>         0.0862
     40 H11         4.5142    5.1099   -4.5246 H         1 <0>         0.0742
     41 H12         5.5281    3.6610   -4.7268 H         1 <0>         0.0634
     42 H13         5.0319    5.5400   -6.8842 H         1 <0>         0.0425
     43 H14         5.8263    3.9683   -7.1430 H         1 <0>         0.0440
     44 H15         4.3895    4.4072   -8.0976 H         1 <0>         0.0884
     45 H16         5.3108   -0.4825   -5.9567 H         1 <0>         0.0890
     46 H17         4.1567    0.8649   -5.8125 H         1 <0>         0.1235
     47 H18         5.3309    0.5556   -4.5110 H         1 <0>         0.1112
     48 H19         3.0401   -5.0079   -3.6148 H         1 <0>         0.4294
     49 H20         4.0988   -4.6402   -4.8664 H         1 <0>         0.4163
@<TRIPOS>BOND
     1    1    2 1
     2    1   30 1
     3    1   31 1
     4    1   32 1
     5    2    3 1
     6    2   33 1
     7    2   34 1
     8    3   11 am
     9    3    4 1
    10    4    9 ar
    11    4    5 ar
    12    5    6 ar
    13    5   35 1
    14    6    7 ar
    15    6   36 1
    16    7    8 ar
    17    7   29 1
    18    8    9 ar
    19    8   37 1
    20    9   10 1
    21   10   17 1
    22   10   11 1
    23   10   13 1
    24   11   12 2
    25   13   14 2
    26   13   27 1
    27   14   15 1
    28   14   26 1
    29   15   16 1
    30   16   17 2
    31   16   25 1
    32   17   18 1
    33   18   19 2
    34   18   20 1
    35   20   21 1
    36   21   22 1
    37   21   38 1
    38   21   39 1
    39   22   23 1
    40   22   40 1
    41   22   41 1
    42   23   24 1
    43   24   42 1
    44   24   43 1
    45   24   44 1
    46   25   45 1
    47   25   46 1
    48   25   47 1
    49   26   48 1
    50   26   49 1
    51   27   28 3
@<TRIPOS>MOLECULE
ZINC63491625
   55    59     0     0     0
SMALL
USER_CHARGES

@<TRIPOS>ATOM
      1 C1          0.9019    2.3322    0.1973 C.ar      1 <0>        -0.1057
      2 C2          2.1493    2.9299    0.2085 C.ar      1 <0>        -0.1208
      3 C3          3.2898    2.1528    0.1946 C.ar      1 <0>        -0.0852
      4 C4          3.1829    0.7636    0.1694 C.ar      1 <0>        -0.0376
      5 C5          1.9236    0.1669    0.1583 C.ar      1 <0>        -0.0994
      6 C6          0.7899    0.9537    0.1723 C.ar      1 <0>        -0.1203
      7 C7          4.4054   -0.0772    0.1539 C.2       1 <0>         0.0126
      8 C8          4.4116   -1.4238    0.1241 C.2       1 <0>        -0.1562
      9 C9          5.8875   -1.7807    0.1200 C.3       1 <0>         0.1963
     10 H1          6.1498   -2.3229   -0.7884 H         1 <0>         0.1690
     11 N1          6.5506   -0.4666    0.1508 N.2       1 <0>        -0.1501
     12 N2          5.6766    0.4029    0.1619 N.2       1 <0>        -0.1351
     13 N3          6.2330   -2.5663    1.3073 N.am      1 <0>        -0.6963
     14 C10         7.0066   -3.6634    1.1877 C.2       1 <0>         0.5106
     15 O1          7.4167   -4.0003    0.0972 O.2       1 <0>        -0.5109
     16 C11         7.3620   -4.4716    2.4090 C.3       1 <0>         0.1202
     17 N4          8.1136   -5.6624    2.0049 N.am      1 <0>        -0.4360
     18 C12         7.4385   -6.7793    1.6577 C.2       1 <0>         0.5542
     19 O2          6.2285   -6.8355    1.7588 O.2       1 <0>        -0.5180
     20 C13         8.2146   -7.9328    1.1502 C.ar      1 <0>        -0.1404
     21 C14         7.6748   -9.2106    1.0739 C.ar      1 <0>        -0.0533
     22 C15         8.4517  -10.2468    0.5912 C.ar      1 <0>        -0.1241
     23 C16         9.7545  -10.0117    0.1883 C.ar      1 <0>        -0.0861
     24 C17        10.2956   -8.7386    0.2629 C.ar      1 <0>        -0.1056
     25 C18         9.5322   -7.6994    0.7414 C.ar      1 <0>        -0.0846
     26 C19        10.0738   -6.2979    0.8417 C.3       1 <0>         0.1257
     27 H2         11.1556   -6.3358    0.9695 H         1 <0>         0.1172
     28 N5          9.4714   -5.6119    1.9840 N.3       1 <0>        -0.4414
     29 C20         9.7396   -5.5307   -0.4392 C.3       1 <0>        -0.0671
     30 C21        10.4992   -6.1284   -1.5954 C.ar      1 <0>        -0.0362
     31 C22        11.7511   -5.6470   -1.9468 C.ar      1 <0>        -0.1690
     32 C23        12.4179   -6.2200   -3.0131 C.ar      1 <0>         0.0984
     33 N6         11.8767   -7.2120   -3.6928 N.ar      1 <0>        -0.4866
     34 C24        10.6884   -7.6950   -3.3869 C.ar      1 <0>         0.0991
     35 C25         9.9653   -7.1765   -2.3295 C.ar      1 <0>        -0.1595
     36 H3          0.0121    2.9441    0.2128 H         1 <0>         0.1267
     37 H4          2.2310    4.0066    0.2277 H         1 <0>         0.1292
     38 H5          4.2633    2.6204    0.2030 H         1 <0>         0.1352
     39 H6          1.8350   -0.9093    0.1384 H         1 <0>         0.1243
     40 H7         -0.1866    0.4924    0.1641 H         1 <0>         0.1285
     41 H8          3.5645   -2.0935    0.1074 H         1 <0>         0.1787
     42 H9          5.9050   -2.2968    2.1795 H         1 <0>         0.4100
     43 H10         7.9724   -3.8669    3.0798 H         1 <0>         0.1261
     44 H11         6.4494   -4.7748    2.9223 H         1 <0>         0.1215
     45 H12         6.6580   -9.3927    1.3890 H         1 <0>         0.1368
     46 H13         8.0407  -11.2436    0.5286 H         1 <0>         0.1333
     47 H14        10.3545  -10.8274   -0.1872 H         1 <0>         0.1306
     48 H15        11.3131   -8.5627   -0.0534 H         1 <0>         0.1282
     49 H16         9.8592   -5.9517    2.8513 H         1 <0>         0.3531
     50 H17         8.6692   -5.5978   -0.6341 H         1 <0>         0.0962
     51 H18        10.0224   -4.4848   -0.3205 H         1 <0>         0.0933
     52 H19        12.1993   -4.8344   -1.3944 H         1 <0>         0.1353
     53 H20        13.3935   -5.8508   -3.2932 H         1 <0>         0.1552
     54 H21        10.2773   -8.5081   -3.9669 H         1 <0>         0.1529
     55 H22         8.9947   -7.5796   -2.0808 H         1 <0>         0.1272
@<TRIPOS>BOND
     1    1    6 ar
     2    1    2 ar
     3    1   36 1
     4    2    3 ar
     5    2   37 1
     6    3    4 ar
     7    3   38 1
     8    4    5 ar
     9    4    7 1
    10    5    6 ar
    11    5   39 1
    12    6   40 1
    13    7   12 1
    14    7    8 2
    15    8    9 1
    16    8   41 1
    17    9   10 1
    18    9   11 1
    19    9   13 1
    20   11   12 2
    21   13   14 am
    22   13   42 1
    23   14   15 2
    24   14   16 1
    25   16   17 1
    26   16   43 1
    27   16   44 1
    28   17   28 1
    29   17   18 am
    30   18   19 2
    31   18   20 1
    32   20   25 ar
    33   20   21 ar
    34   21   22 ar
    35   21   45 1
    36   22   23 ar
    37   22   46 1
    38   23   24 ar
    39   23   47 1
    40   24   25 ar
    41   24   48 1
    42   25   26 1
    43   26   27 1
    44   26   28 1
    45   26   29 1
    46   28   49 1
    47   29   30 1
    48   29   50 1
    49   29   51 1
    50   30   35 ar
    51   30   31 ar
    52   31   32 ar
    53   31   52 1
    54   32   33 ar
    55   32   53 1
    56   33   34 ar
    57   34   35 ar
    58   34   54 1
    59   35   55 1
@<TRIPOS>MOLECULE
ZINC09494118
   48    52     0     0     0
SMALL
USER_CHARGES
5-benzo[1,3]dioxol-5-yl-5-methyl-3-[2-(3-methylbenzofuran-2-yl)-2-oxo-ethyl]-imidazolidine-2,4-dione
@<TRIPOS>ATOM
      1 C1          1.3668    0.8375   -6.7124 C.3       1 <0>        -0.1038
      2 C2          0.8750    2.2620   -6.7020 C.2       1 <0>        -0.0444
      3 C3          0.6695    3.0928   -7.8320 C.ar      1 <0>        -0.1521
      4 C4          0.8312    2.9102   -9.2100 C.ar      1 <0>        -0.0518
      5 C5          0.5405    3.9319  -10.0679 C.ar      1 <0>        -0.1394
      6 C6          0.0854    5.1511   -9.5835 C.ar      1 <0>        -0.0703
      7 C7         -0.0810    5.3525   -8.2304 C.ar      1 <0>        -0.1154
      8 C8          0.2085    4.3274   -7.3376 C.ar      1 <0>         0.0831
      9 O1          0.1409    4.2277   -5.9949 O.3       1 <0>        -0.1709
     10 C9          0.5428    2.9976   -5.6054 C.2       1 <0>        -0.0814
     11 C10         0.6033    2.5420   -4.2644 C.2       1 <0>         0.4188
     12 O2          0.9752    1.4119   -4.0235 O.2       1 <0>        -0.4167
     13 C11         0.2059    3.4608   -3.1379 C.3       1 <0>         0.0936
     14 N1          0.3554    2.7598   -1.8602 N.am      1 <0>        -0.5679
     15 C12        -0.6189    2.0351   -1.2757 C.2       1 <0>         0.5413
     16 O3         -1.7419    1.8472   -1.6922 O.2       1 <0>        -0.4516
     17 C13        -0.0184    1.5028    0.0103 C.3       1 <0>         0.1757
     18 N2          1.3534    2.0398    0.0001 N.am      1 <0>        -0.7154
     19 C14         1.4764    2.7594   -1.1299 C.2       1 <0>         0.7105
     20 O4          2.4924    3.3438   -1.4513 O.2       1 <0>        -0.5317
     21 C15        -0.7908    2.0224    1.2245 C.3       1 <0>        -0.1455
     22 C16         0.0021   -0.0041    0.0020 C.ar      1 <0>        -0.0905
     23 C17        -1.0195   -0.7044   -0.6123 C.ar      1 <0>        -0.0915
     24 C18        -1.0028   -2.0866   -0.6265 C.ar      1 <0>        -0.0935
     25 C19         0.0336   -2.7738   -0.0157 C.ar      1 <0>         0.0449
     26 C20         1.0599   -2.0684    0.6077 C.ar      1 <0>         0.0344
     27 C21         1.0392   -0.6831    0.6136 C.ar      1 <0>        -0.0762
     28 O5          1.9499   -2.9626    1.1289 O.3       1 <0>        -0.3058
     29 C22         1.6731   -4.2109    0.4668 C.3       1 <0>         0.2126
     30 O6          0.2806   -4.1099    0.1149 O.3       1 <0>        -0.3055
     31 H1          0.5160    0.1599   -6.7839 H         1 <0>         0.0844
     32 H2          2.0246    0.6865   -7.5683 H         1 <0>         0.0751
     33 H3          1.9155    0.6359   -5.7924 H         1 <0>         0.0908
     34 H4          1.1851    1.9646   -9.5935 H         1 <0>         0.1323
     35 H5          0.6657    3.7907  -11.1313 H         1 <0>         0.1350
     36 H6         -0.1408    5.9498  -10.2744 H         1 <0>         0.1413
     37 H7         -0.4358    6.3046   -7.8646 H         1 <0>         0.1391
     38 H8         -0.7472    3.7396   -3.2557 H         1 <0>         0.1198
     39 H9          0.8461    4.3429   -3.1454 H         1 <0>         0.1387
     40 H10         2.0348    1.9019    0.6765 H         1 <0>         0.4425
     41 H11        -0.3116    1.6701    2.1379 H         1 <0>         0.0860
     42 H12        -0.7948    3.1123    1.2134 H         1 <0>         0.0759
     43 H13        -1.8163    1.6549    1.1872 H         1 <0>         0.0901
     44 H14        -1.8304   -0.1704   -1.0852 H         1 <0>         0.1542
     45 H15        -1.8000   -2.6310   -1.1107 H         1 <0>         0.1427
     46 H16         1.8336   -0.1336    1.0967 H         1 <0>         0.1358
     47 H17         2.2876   -4.3145   -0.4275 H         1 <0>         0.0872
     48 H18         1.8397   -5.0487    1.1438 H         1 <0>         0.1356
@<TRIPOS>BOND
     1    1    2 1
     2    1   31 1
     3    1   32 1
     4    1   33 1
     5    2   10 2
     6    2    3 1
     7    3    8 ar
     8    3    4 ar
     9    4    5 ar
    10    4   34 1
    11    5    6 ar
    12    5   35 1
    13    6    7 ar
    14    6   36 1
    15    7    8 ar
    16    7   37 1
    17    8    9 1
    18    9   10 1
    19   10   11 1
    20   11   12 2
    21   11   13 1
    22   13   14 1
    23   13   38 1
    24   13   39 1
    25   14   19 am
    26   14   15 am
    27   15   16 2
    28   15   17 1
    29   17   18 1
    30   17   21 1
    31   17   22 1
    32   18   19 am
    33   18   40 1
    34   19   20 2
    35   21   41 1
    36   21   42 1
    37   21   43 1
    38   22   27 ar
    39   22   23 ar
    40   23   24 ar
    41   23   44 1
    42   24   25 ar
    43   24   45 1
    44   25   30 1
    45   25   26 ar
    46   26   27 ar
    47   26   28 1
    48   27   46 1
    49   28   29 1
    50   29   30 1
    51   29   47 1
    52   29   48 1
@<TRIPOS>MOLECULE
ZINC04304035
   52    56     0     0     0
SMALL
USER_CHARGES
2-(3-hydroxypropyl)-4-methyl-6,7-diphenyl-purino[7,8-a]imidazole-1,3-dione
@<TRIPOS>ATOM
      1 C1          8.5672    6.3903   -0.7673 C.3       1 <0>         0.0851
      2 N1          8.4606    4.9369   -0.6174 N.am      1 <0>        -0.5092
      3 C2          7.2182    4.3479   -0.4363 C.2       1 <0>         0.3790
      4 C3          7.1465    2.9626   -0.2969 C.2       1 <0>        -0.1835
      5 C4          8.3299    2.2074   -0.3434 C.2       1 <0>         0.6000
      6 O1          8.2915    0.9951   -0.2234 O.2       1 <0>        -0.5162
      7 N2          9.5093    2.8372   -0.5217 N.am      1 <0>        -0.5493
      8 C5          9.5689    4.1733   -0.6552 C.2       1 <0>         0.7125
      9 O2         10.6505    4.7056   -0.8143 O.2       1 <0>        -0.5295
     10 C6         10.7453    2.0522   -0.5710 C.3       1 <0>         0.1198
     11 C7         11.0321    1.6430   -2.0171 C.3       1 <0>        -0.1363
     12 C8         12.3229    0.8232   -2.0687 C.3       1 <0>         0.0824
     13 O3         12.5908    0.4410   -3.4194 O.3       1 <0>        -0.5736
     14 N3          5.8037    2.6556   -0.1331 N.pl3     1 <0>        -0.3502
     15 C9          4.8961    1.6330    0.0555 C.2       1 <0>         0.0088
     16 C10         3.6654    2.1686    0.1277 C.2       1 <0>         0.1211
     17 N4          3.7882    3.5448   -0.0221 N.pl3     1 <0>        -0.4090
     18 C11         5.1216    3.8311   -0.1769 C.2       1 <0>         0.4528
     19 N5          5.9785    4.8248   -0.3576 N.2       1 <0>        -0.4974
     20 C12         2.7402    4.4730   -0.0129 C.ar      1 <0>         0.1178
     21 C13         1.8160    4.4894   -1.0495 C.ar      1 <0>        -0.0966
     22 C14         0.7809    5.4035   -1.0352 C.ar      1 <0>        -0.1057
     23 C15         0.6697    6.3084    0.0046 C.ar      1 <0>        -0.0994
     24 C16         1.5911    6.2978    1.0357 C.ar      1 <0>        -0.1053
     25 C17         2.6258    5.3831    1.0299 C.ar      1 <0>        -0.0979
     26 C18         2.4022    1.4238    0.3253 C.ar      1 <0>        -0.0335
     27 C19         2.3435    0.0579    0.0470 C.ar      1 <0>        -0.0904
     28 C20         1.1629   -0.6311    0.2342 C.ar      1 <0>        -0.1137
     29 C21         0.0387    0.0297    0.6965 C.ar      1 <0>        -0.1031
     30 C22         0.0904    1.3841    0.9738 C.ar      1 <0>        -0.1136
     31 C23         1.2651    2.0844    0.7912 C.ar      1 <0>        -0.1010
     32 H1          9.6135    6.6662   -0.8984 H         1 <0>         0.1052
     33 H2          7.9956    6.7085   -1.6391 H         1 <0>         0.0802
     34 H3          8.1719    6.8774    0.1240 H         1 <0>         0.0802
     35 H4         11.5724    2.6527   -0.1925 H         1 <0>         0.1056
     36 H5         10.6333    1.1592    0.0438 H         1 <0>         0.1042
     37 H6         10.2049    1.0426   -2.3957 H         1 <0>         0.0761
     38 H7         11.1440    2.5360   -2.6320 H         1 <0>         0.0778
     39 H8         13.1500    1.4236   -1.6901 H         1 <0>         0.0515
     40 H9         12.2109   -0.0698   -1.4538 H         1 <0>         0.0505
     41 H10        13.3964   -0.0827   -3.5275 H         1 <0>         0.3829
     42 H11         5.1340    0.5823    0.1316 H         1 <0>         0.2011
     43 H12         1.9049    3.7859   -1.8641 H         1 <0>         0.1311
     44 H13         0.0595    5.4141   -1.8389 H         1 <0>         0.1365
     45 H14        -0.1385    7.0247    0.0115 H         1 <0>         0.1343
     46 H15         1.5016    7.0058    1.8464 H         1 <0>         0.1367
     47 H16         3.3450    5.3753    1.8355 H         1 <0>         0.1312
     48 H17         3.2205   -0.4591   -0.3136 H         1 <0>         0.1317
     49 H18         1.1174   -1.6894    0.0237 H         1 <0>         0.1324
     50 H19        -0.8832   -0.5140    0.8410 H         1 <0>         0.1287
     51 H20        -0.7906    1.8943    1.3344 H         1 <0>         0.1291
     52 H21         1.3042    3.1416    1.0081 H         1 <0>         0.1282
@<TRIPOS>BOND
     1    1    2 1
     2    1   32 1
     3    1   33 1
     4    1   34 1
     5    2    8 am
     6    2    3 1
     7    3   19 1
     8    3    4 2
     9    4    5 1
    10    4   14 1
    11    5    6 2
    12    5    7 am
    13    7    8 am
    14    7   10 1
    15    8    9 2
    16   10   11 1
    17   10   35 1
    18   10   36 1
    19   11   12 1
    20   11   37 1
    21   11   38 1
    22   12   13 1
    23   12   39 1
    24   12   40 1
    25   13   41 1
    26   14   18 1
    27   14   15 1
    28   15   16 2
    29   15   42 1
    30   16   17 1
    31   16   26 1
    32   17   18 1
    33   17   20 1
    34   18   19 2
    35   20   25 ar
    36   20   21 ar
    37   21   22 ar
    38   21   43 1
    39   22   23 ar
    40   22   44 1
    41   23   24 ar
    42   23   45 1
    43   24   25 ar
    44   24   46 1
    45   25   47 1
    46   26   31 ar
    47   26   27 ar
    48   27   28 ar
    49   27   48 1
    50   28   29 ar
    51   28   49 1
    52   29   30 ar
    53   29   50 1
    54   30   31 ar
    55   30   51 1
    56   31   52 1
@<TRIPOS>MOLECULE
ZINC29302910
   51    54     0     0     0
SMALL
USER_CHARGES
(5S)-3-[[[(1R)-indan-1-yl]-methyl-amino]methyl]-5-methyl-5-(4-nitrophenyl)imidazolidine-2,4-dione
@<TRIPOS>ATOM
      1 C1         -6.4449    1.2159   -4.0743 C.3       1 <0>        -0.1461
      2 C2         -5.9210    0.5338   -2.8090 C.3       1 <0>         0.1491
      3 C3         -5.7705    1.5356   -1.6814 C.2       1 <0>         0.5359
      4 O1         -6.6471    2.1965   -1.1671 O.2       1 <0>        -0.4570
      5 N1         -4.4591    1.5400   -1.3706 N.am      1 <0>        -0.5628
      6 C4         -3.7686    0.6837   -2.1321 C.2       1 <0>         0.7203
      7 O2         -2.5698    0.5086   -2.0351 O.2       1 <0>        -0.5266
      8 N2         -4.5494    0.0383   -3.0173 N.am      1 <0>        -0.7312
      9 C5         -3.8642    2.3747   -0.3239 C.3       1 <0>         0.2820
     10 N3         -3.4434    3.6583   -0.9013 N.3       1 <0>        -0.5470
     11 C6         -4.5833    4.5755   -1.0326 C.3       1 <0>         0.0153
     12 C7         -2.3678    4.2657   -0.1063 C.3       1 <0>         0.1270
     13 H1         -1.5694    3.5094   -0.0830 H         1 <0>         0.1051
     14 C8         -2.8922    4.6617    1.2902 C.3       1 <0>        -0.1598
     15 C9         -2.0971    5.9503    1.5896 C.3       1 <0>        -0.0754
     16 C10        -1.7579    6.5307    0.2334 C.ar      1 <0>        -0.0898
     17 C11        -1.9136    5.5625   -0.7413 C.ar      1 <0>        -0.0894
     18 C12        -1.6624    5.8727   -2.0671 C.ar      1 <0>        -0.0852
     19 C13        -1.2463    7.1427   -2.4171 C.ar      1 <0>        -0.1245
     20 C14        -1.0906    8.1105   -1.4428 C.ar      1 <0>        -0.1131
     21 C15        -1.3459    7.8044   -0.1200 C.ar      1 <0>        -0.1098
     22 C16        -6.8348   -0.5921   -2.3984 C.ar      1 <0>        -0.0436
     23 C17        -7.9019   -0.3437   -1.5555 C.ar      1 <0>        -0.1080
     24 C18        -8.7432   -1.3754   -1.1831 C.ar      1 <0>        -0.0468
     25 C19        -8.5107   -2.6576   -1.6444 C.ar      1 <0>        -0.0371
     26 C20        -7.4404   -2.9069   -2.4831 C.ar      1 <0>        -0.0503
     27 C21        -6.6025   -1.8742   -2.8600 C.ar      1 <0>        -0.0966
     28 N4         -9.4079   -3.7635   -1.2408 N.pl3     1 <0>         0.0242
     29 O3         -9.2033   -4.8931   -1.6476 O.2       1 <0>        -0.1530
     30 O4        -10.3509   -3.5438   -0.5019 O.3       1 <0>        -0.1527
     31 H2         -7.4685    1.5782   -3.8985 H         1 <0>         0.0879
     32 H3         -6.4488    0.4946   -4.9048 H         1 <0>         0.0865
     33 H4         -5.7940    2.0652   -4.3293 H         1 <0>         0.0798
     34 H5         -4.3496   -0.7193   -3.7894 H         1 <0>         0.4692
     35 H6         -4.6065    2.5545    0.4678 H         1 <0>         0.0818
     36 H7         -2.9904    1.8605    0.1027 H         1 <0>         0.1126
     37 H8         -4.2406    5.5265   -1.4664 H         1 <0>         0.0767
     38 H9         -5.0204    4.7615   -0.0405 H         1 <0>         0.0390
     39 H10        -5.3424    4.1253   -1.6892 H         1 <0>         0.0661
     40 H11        -3.9779    4.8310    1.2397 H         1 <0>         0.0819
     41 H12        -2.6801    3.8525    2.0045 H         1 <0>         0.0805
     42 H13        -2.7215    6.6378    2.1791 H         1 <0>         0.0774
     43 H14        -1.1909    5.6979    2.1597 H         1 <0>         0.0850
     44 H15        -1.7884    5.1183   -2.8296 H         1 <0>         0.1226
     45 H16        -1.0472    7.3803   -3.4517 H         1 <0>         0.1239
     46 H17        -0.7694    9.1050   -1.7152 H         1 <0>         0.1242
     47 H18        -1.2241    8.5612    0.6408 H         1 <0>         0.1207
     48 H19        -8.0808    0.6572   -1.1913 H         1 <0>         0.1633
     49 H20        -9.5796   -1.1805   -0.5283 H         1 <0>         0.1598
     50 H21        -7.2587   -3.9087   -2.8435 H         1 <0>         0.1601
     51 H22        -5.7661   -2.0690   -3.5149 H         1 <0>         0.1480
@<TRIPOS>BOND
     1    1    2 1
     2    1   31 1
     3    1   32 1
     4    1   33 1
     5    2    8 1
     6    2    3 1
     7    2   22 1
     8    3    4 2
     9    3    5 am
    10    5    6 am
    11    5    9 1
    12    6    7 2
    13    6    8 am
    14    8   34 1
    15    9   10 1
    16    9   35 1
    17    9   36 1
    18   10   11 1
    19   10   12 1
    20   11   37 1
    21   11   38 1
    22   11   39 1
    23   12   13 1
    24   12   17 1
    25   12   14 1
    26   14   15 1
    27   14   40 1
    28   14   41 1
    29   15   16 1
    30   15   42 1
    31   15   43 1
    32   16   21 ar
    33   16   17 ar
    34   17   18 ar
    35   18   19 ar
    36   18   44 1
    37   19   20 ar
    38   19   45 1
    39   20   21 ar
    40   20   46 1
    41   21   47 1
    42   22   27 ar
    43   22   23 ar
    44   23   24 ar
    45   23   48 1
    46   24   25 ar
    47   24   49 1
    48   25   26 ar
    49   25   28 1
    50   26   27 ar
    51   26   50 1
    52   27   51 1
    53   28   29 2
    54   28   30 1
@<TRIPOS>MOLECULE
ZINC39355880
   52    56     0     0     0
SMALL
USER_CHARGES

@<TRIPOS>ATOM
      1 C1          0.0583    1.5283    0.1596 C.3       1 <0>         0.0086
      2 N1          0.0273    0.0602    0.1185 N.3       1 <0>        -0.4818
      3 C2          0.6952   -0.4528   -1.1071 C.3       1 <0>         0.0454
      4 C3          1.0555   -1.9133   -0.7337 C.3       1 <0>        -0.0528
      5 H1          0.1923   -2.5672   -0.8575 H         1 <0>         0.1249
      6 C4          1.4487   -1.8022    0.7591 C.3       1 <0>        -0.1146
      7 H2          2.5312   -1.7260    0.8616 H         1 <0>         0.1160
      8 C5          0.7745   -0.5148    1.2483 C.3       1 <0>         0.1239
      9 C6          1.7909    0.4585    1.7812 C.ar      1 <0>        -0.1747
     10 C7          2.8757    1.0940    1.2196 C.ar      1 <0>        -0.0604
     11 C8          3.6435    1.9562    1.9822 C.ar      1 <0>        -0.1360
     12 C9          3.3183    2.1777    3.3081 C.ar      1 <0>        -0.0695
     13 C10         2.2321    1.5435    3.8742 C.ar      1 <0>        -0.1344
     14 C11         1.4533    0.6744    3.1132 C.ar      1 <0>         0.1596
     15 N2          0.3228   -0.0717    3.4519 N.am      1 <0>        -0.6633
     16 C12        -0.1378   -0.7955    2.4146 C.2       1 <0>         0.5391
     17 O1         -1.1018   -1.5314    2.4178 O.2       1 <0>        -0.4568
     18 C13         0.9328   -2.9917    1.5273 C.2       1 <0>         0.4003
     19 O2         -0.0445   -3.5909    1.1323 O.2       1 <0>        -0.4045
     20 C14         1.6150   -3.4259    2.7568 C.ar      1 <0>        -0.2244
     21 C15         1.1487   -4.5351    3.4783 C.ar      1 <0>        -0.0131
     22 C16         1.8266   -4.9014    4.6266 C.ar      1 <0>        -0.1803
     23 C17         2.9322   -4.1697    5.0237 C.ar      1 <0>         0.1294
     24 N3          3.3493   -3.1304    4.3260 N.ar      1 <0>        -0.4843
     25 C18         2.7428   -2.7439    3.2233 C.ar      1 <0>         0.1454
     26 C19         2.2165   -2.4039   -1.5597 C.ar      1 <0>        -0.0273
     27 C20         3.4271   -1.7381   -1.5147 C.ar      1 <0>        -0.1182
     28 C21         4.4920   -2.1882   -2.2724 C.ar      1 <0>        -0.0486
     29 C22         4.3466   -3.3044   -3.0748 C.ar      1 <0>        -0.0491
     30 C23         3.1363   -3.9708   -3.1191 C.ar      1 <0>        -0.0483
     31 C24         2.0726   -3.5232   -2.3581 C.ar      1 <0>        -0.1050
     32 N4          5.4866   -3.7857   -3.8869 N.pl3     1 <0>         0.0318
     33 O3          6.5450   -3.2027   -3.8485 O.2       1 <0>        -0.1553
     34 O4          5.3594   -4.7620   -4.5887 O.3       1 <0>        -0.1558
     35 H3          1.0915    1.8716    0.1063 H         1 <0>         0.0496
     36 H4         -0.5013    1.9274   -0.6864 H         1 <0>         0.0810
     37 H5         -0.3923    1.8753    1.0895 H         1 <0>         0.0695
     38 H6          0.0111   -0.4306   -1.9554 H         1 <0>         0.1052
     39 H7          1.5958    0.1220   -1.3232 H         1 <0>         0.0618
     40 H8          3.1275    0.9191    0.1840 H         1 <0>         0.1250
     41 H9          4.4950    2.4549    1.5432 H         1 <0>         0.1348
     42 H10         3.9181    2.8503    3.9033 H         1 <0>         0.1359
     43 H11         1.9844    1.7215    4.9102 H         1 <0>         0.1302
     44 H12        -0.0835   -0.0691    4.3327 H         1 <0>         0.4169
     45 H13         0.2828   -5.0882    3.1457 H         1 <0>         0.1471
     46 H14         1.4963   -5.7496    5.2078 H         1 <0>         0.1462
     47 H15         3.4625   -4.4542    5.9205 H         1 <0>         0.1650
     48 H16         3.1170   -1.8908    2.6769 H         1 <0>         0.1565
     49 H17         3.5407   -0.8660   -0.8878 H         1 <0>         0.1441
     50 H18         5.4376   -1.6675   -2.2378 H         1 <0>         0.1566
     51 H19         3.0225   -4.8426   -3.7463 H         1 <0>         0.1569
     52 H20         1.1281   -4.0460   -2.3899 H         1 <0>         0.1516
@<TRIPOS>BOND
     1    1    2 1
     2    1   35 1
     3    1   36 1
     4    1   37 1
     5    2    8 1
     6    2    3 1
     7    3    4 1
     8    3   38 1
     9    3   39 1
    10    4    5 1
    11    4    6 1
    12    4   26 1
    13    6    7 1
    14    6    8 1
    15    6   18 1
    16    8   16 1
    17    8    9 1
    18    9   14 ar
    19    9   10 ar
    20   10   11 ar
    21   10   40 1
    22   11   12 ar
    23   11   41 1
    24   12   13 ar
    25   12   42 1
    26   13   14 ar
    27   13   43 1
    28   14   15 1
    29   15   16 am
    30   15   44 1
    31   16   17 2
    32   18   19 2
    33   18   20 1
    34   20   25 ar
    35   20   21 ar
    36   21   22 ar
    37   21   45 1
    38   22   23 ar
    39   22   46 1
    40   23   24 ar
    41   23   47 1
    42   24   25 ar
    43   25   48 1
    44   26   31 ar
    45   26   27 ar
    46   27   28 ar
    47   27   49 1
    48   28   29 ar
    49   28   50 1
    50   29   30 ar
    51   29   32 1
    52   30   31 ar
    53   30   51 1
    54   31   52 1
    55   32   33 2
    56   32   34 1
@<TRIPOS>MOLECULE
ZINC32091954
   48    51     0     0     0
SMALL
USER_CHARGES

@<TRIPOS>ATOM
      1 C1         -0.0184    1.5028    0.0103 C.3       1 <0>        -0.0806
      2 C2          0.0021   -0.0041    0.0020 C.2       1 <0>         0.1516
      3 C3          0.0079   -0.8104   -1.1270 C.2       1 <0>        -0.2620
      4 C4          0.0328   -2.1160   -0.7143 C.2       1 <0>         0.3507
      5 N1          0.0329   -2.1168    0.6356 N.pl3     1 <0>        -0.3252
      6 N2          0.0231   -0.7785    1.0617 N.2       1 <0>        -0.2805
      7 C5          0.0453   -3.2457    1.4604 C.ar      1 <0>         0.3171
      8 C6          0.5486   -3.1591    2.7570 C.ar      1 <0>        -0.0905
      9 C7          0.5385   -4.3061    3.5352 C.ar      1 <0>        -0.0761
     10 C8          0.0278   -5.4700    2.9752 C.ar      1 <0>         0.1019
     11 N3         -0.4287   -5.4602    1.7372 N.ar      1 <0>        -0.1909
     12 N4         -0.4260   -4.3995    1.0146 N.ar      1 <0>        -0.2505
     13 Cl1        -0.0095   -6.9367    3.9032 Cl        1 <0>         0.0145
     14 N5          0.0644   -3.1752   -1.6198 N.am      1 <0>        -0.6425
     15 C9          0.2744   -2.8913   -2.9228 C.2       1 <0>         0.5344
     16 O1          0.1188   -3.7671   -3.7473 O.2       1 <0>        -0.5022
     17 C10         0.6942   -1.5242   -3.3836 C.3       1 <0>        -0.1333
     18 C11        -0.0138   -0.4258   -2.5847 C.3       1 <0>         0.0448
     19 H1         -1.0452   -0.3318   -2.9243 H         1 <0>         0.0978
     20 C12         0.7057    0.8846   -2.7748 C.ar      1 <0>        -0.0693
     21 C13         2.0391    0.9961   -2.4271 C.ar      1 <0>        -0.1002
     22 C14         2.7036    2.1961   -2.5996 C.ar      1 <0>        -0.1681
     23 C15         2.0332    3.2902   -3.1225 C.ar      1 <0>         0.1057
     24 C16         0.6913    3.1779   -3.4729 C.ar      1 <0>         0.1063
     25 C17         0.0324    1.9709   -3.3019 C.ar      1 <0>        -0.1649
     26 O2          0.0290    4.2489   -3.9865 O.3       1 <0>        -0.2980
     27 C18        -1.3468    4.0604   -4.3236 C.3       1 <0>         0.1728
     28 C19        -1.8968    5.3156   -4.8607 C.1       1 <0>        -0.2057
     29 C20        -2.3356    6.3168   -5.2892 C.1       1 <0>        -0.1514
     30 O3          2.6853    4.4715   -3.2925 O.3       1 <0>        -0.3053
     31 C21         4.0617    4.5136   -2.9105 C.3       1 <0>         0.0255
     32 H2          1.0042    1.8801    0.0026 H         1 <0>         0.0872
     33 H3         -0.5455    1.8639   -0.8728 H         1 <0>         0.0875
     34 H4         -0.5286    1.8543    0.9071 H         1 <0>         0.0789
     35 H5          0.9348   -2.2275    3.1433 H         1 <0>         0.1756
     36 H6          0.9168   -4.2952    4.5468 H         1 <0>         0.1753
     37 H7         -0.0605   -4.0899   -1.3223 H         1 <0>         0.4248
     38 H8          1.7717   -1.4198   -3.2562 H         1 <0>         0.1112
     39 H9          0.4482   -1.4124   -4.4396 H         1 <0>         0.1192
     40 H10         2.5627    0.1440   -2.0195 H         1 <0>         0.1252
     41 H11         3.7450    2.2807   -2.3265 H         1 <0>         0.1368
     42 H12        -1.0081    1.8799   -3.5766 H         1 <0>         0.1393
     43 H13        -1.4325    3.2753   -5.0748 H         1 <0>         0.0877
     44 H14        -1.9032    3.7721   -3.4317 H         1 <0>         0.0877
     45 H15        -2.7279    7.2122   -5.6723 H         1 <0>         0.2250
     46 H16         4.6229    3.7828   -3.4928 H         1 <0>         0.0558
     47 H17         4.4603    5.5107   -3.0974 H         1 <0>         0.1012
     48 H18         4.1517    4.2793   -1.8497 H         1 <0>         0.0560
@<TRIPOS>BOND
     1    1    2 1
     2    1   32 1
     3    1   33 1
     4    1   34 1
     5    2    6 2
     6    2    3 1
     7    3   18 1
     8    3    4 2
     9    4    5 1
    10    4   14 1
    11    5    6 1
    12    5    7 1
    13    7   12 ar
    14    7    8 ar
    15    8    9 ar
    16    8   35 1
    17    9   10 ar
    18    9   36 1
    19   10   11 ar
    20   10   13 1
    21   11   12 ar
    22   14   15 am
    23   14   37 1
    24   15   16 2
    25   15   17 1
    26   17   18 1
    27   17   38 1
    28   17   39 1
    29   18   19 1
    30   18   20 1
    31   20   25 ar
    32   20   21 ar
    33   21   22 ar
    34   21   40 1
    35   22   23 ar
    36   22   41 1
    37   23   24 ar
    38   23   30 1
    39   24   25 ar
    40   24   26 1
    41   25   42 1
    42   26   27 1
    43   27   28 1
    44   27   43 1
    45   27   44 1
    46   28   29 3
    47   29   45 1
    48   30   31 1
    49   31   46 1
    50   31   47 1
    51   31   48 1
@<TRIPOS>MOLECULE
ZINC00889537
   58    62     0     0     0
SMALL
USER_CHARGES
3-[(1-cyclopentyltetrazol-5-yl)-pyrrolidin-1-yl-methyl]-7,8-dimethyl-1H-quinolin-2-one
@<TRIPOS>ATOM
      1 C1          7.2204    4.7317    0.7564 C.3       1 <0>        -0.1345
      2 C2          5.7986    4.2347    0.8082 C.ar      1 <0>         0.0001
      3 C3          4.9569    4.6656    1.8249 C.ar      1 <0>        -0.1407
      4 C4          3.6647    4.2276    1.8899 C.ar      1 <0>        -0.0423
      5 C5          3.1850    3.3367    0.9240 C.ar      1 <0>        -0.1614
      6 C6          1.8039    2.8521    0.9600 C.2       1 <0>         0.0753
      7 C7          1.3960    1.9864   -0.0006 C.2       1 <0>        -0.2825
      8 C8          2.2890    1.5766   -1.0138 C.2       1 <0>         0.5431
      9 O1          1.9005    0.8012   -1.8702 O.2       1 <0>        -0.5226
     10 N1          3.5576    2.0200   -1.0579 N.am      1 <0>        -0.6203
     11 H1          4.1632    1.7089   -1.7903 H         1 <0>         0.4324
     12 C9          4.0354    2.8973   -0.1079 C.ar      1 <0>         0.2089
     13 C10         5.3478    3.3566   -0.1534 C.ar      1 <0>        -0.1341
     14 C11         6.2726    2.8964   -1.2507 C.3       1 <0>        -0.1237
     15 C12        -0.0178    1.4648    0.0101 C.3       1 <0>         0.2206
     16 H2         -0.5280    1.8163    0.9069 H         1 <0>         0.1556
     17 C13        -0.7467    1.9640   -1.2108 C.2       1 <0>         0.1119
     18 N2         -0.5973    1.5365   -2.4408 N.2       1 <0>        -0.2452
     19 N3         -1.3963    2.2087   -3.1956 N.2       1 <0>        -0.0579
     20 N4         -2.0459    3.0594   -2.4801 N.2       1 <0>        -0.0527
     21 N5         -1.6733    2.9394   -1.2507 N.pl3     1 <0>        -0.2747
     22 C14        -2.1664    3.7183   -0.1121 C.3       1 <0>         0.1263
     23 C15        -3.6956    3.5588    0.0146 C.3       1 <0>        -0.1344
     24 C16        -4.1874    4.9598    0.4583 C.3       1 <0>        -0.1218
     25 C17        -3.2722    5.9151   -0.3472 C.3       1 <0>        -0.1253
     26 C18        -1.8971    5.2158   -0.3417 C.3       1 <0>        -0.1332
     27 C19         0.7633   -0.5325    1.1628 C.3       1 <0>        -0.0036
     28 C20         0.2486   -1.9882    1.2914 C.3       1 <0>        -0.1440
     29 C21        -1.2526   -1.8557    0.9466 C.3       1 <0>        -0.1406
     30 C22        -1.3649   -0.5534    0.1325 C.3       1 <0>        -0.0140
     31 H3          7.8613    4.0593    1.3266 H         1 <0>         0.0879
     32 H4          7.5569    4.7627   -0.2799 H         1 <0>         0.0798
     33 H5          7.2712    5.7326    1.1850 H         1 <0>         0.0810
     34 H6          5.3271    5.3534    2.5707 H         1 <0>         0.1413
     35 H7          3.0162    4.5675    2.6839 H         1 <0>         0.1432
     36 H8          1.1261    3.1741    1.7368 H         1 <0>         0.1567
     37 H9          6.1981    3.5777   -2.0982 H         1 <0>         0.0820
     38 H10         7.2981    2.8867   -0.8813 H         1 <0>         0.0874
     39 H11         5.9906    1.8919   -1.5661 H         1 <0>         0.0648
     40 H12        -1.6793    3.3876    0.8051 H         1 <0>         0.1163
     41 H13        -4.1319    3.2884   -0.9470 H         1 <0>         0.0911
     42 H14        -3.9399    2.8112    0.7692 H         1 <0>         0.0846
     43 H15        -4.0423    5.0979    1.5297 H         1 <0>         0.0788
     44 H16        -5.2328    5.1062    0.1869 H         1 <0>         0.0858
     45 H17        -3.2082    6.8862    0.1437 H         1 <0>         0.0827
     46 H18        -3.6398    6.0257   -1.3673 H         1 <0>         0.0789
     47 H19        -1.2799    5.6121    0.4647 H         1 <0>         0.0904
     48 H20        -1.3995    5.3631   -1.3002 H         1 <0>         0.0817
     49 H21         1.8340   -0.5196    0.9588 H         1 <0>         0.1337
     50 H22         0.5354    0.0371    2.0638 H         1 <0>         0.1344
     51 H23         0.3796   -2.3552    2.3093 H         1 <0>         0.1202
     52 H24         0.7516   -2.6424    0.5793 H         1 <0>         0.1010
     53 H25        -1.8454   -1.7841    1.8585 H         1 <0>         0.1064
     54 H26        -1.5796   -2.7057    0.3476 H         1 <0>         0.1081
     55 H27        -2.0027    0.1583    0.6567 H         1 <0>         0.1244
     56 H28        -1.7765   -0.7635   -0.8548 H         1 <0>         0.1323
     57 N6         -0.0037   -0.0290    0.0126 N.4       1 <0>        -0.3889
     58 H29         0.4209   -0.3631   -0.8605 H         1 <0>         0.4496
@<TRIPOS>BOND
     1    1    2 1
     2    1   31 1
     3    1   32 1
     4    1   33 1
     5    2   13 ar
     6    2    3 ar
     7    3    4 ar
     8    3   34 1
     9    4    5 ar
    10    4   35 1
    11    5   12 ar
    12    5    6 1
    13    6    7 2
    14    6   36 1
    15    7    8 1
    16    7   15 1
    17    8    9 2
    18    8   10 am
    19   10   11 1
    20   10   12 1
    21   12   13 ar
    22   13   14 1
    23   14   37 1
    24   14   38 1
    25   14   39 1
    26   15   16 1
    27   15   17 1
    28   15   57 1
    29   17   21 1
    30   17   18 2
    31   18   19 1
    32   19   20 2
    33   20   21 1
    34   21   22 1
    35   22   26 1
    36   22   23 1
    37   22   40 1
    38   23   24 1
    39   23   41 1
    40   23   42 1
    41   24   25 1
    42   24   43 1
    43   24   44 1
    44   25   26 1
    45   25   45 1
    46   25   46 1
    47   26   47 1
    48   26   48 1
    49   27   28 1
    50   27   49 1
    51   27   50 1
    52   27   57 1
    53   28   29 1
    54   28   51 1
    55   28   52 1
    56   29   30 1
    57   29   53 1
    58   29   54 1
    59   30   55 1
    60   30   56 1
    61   30   57 1
    62   57   58 1
@<TRIPOS>MOLECULE
ZINC35564810
   61    65     0     0     0
SMALL
USER_CHARGES

@<TRIPOS>ATOM
      1 C1         -0.4793    0.7614    1.0419 C.ar      1 <0>        -0.1174
      2 C2          0.5833    1.5652    0.6725 C.ar      1 <0>        -0.1224
      3 C3          1.8299    1.0076    0.4728 C.ar      1 <0>        -0.1177
      4 C4          2.0239   -0.3556    0.6417 C.ar      1 <0>        -0.0835
      5 C5          0.9651   -1.1559    1.0134 C.ar      1 <0>        -0.0693
      6 C6         -0.2878   -0.5951    1.2111 C.ar      1 <0>        -0.1178
      7 C7          1.1294   -2.6397    1.2203 C.3       1 <0>        -0.0784
      8 C8          2.4271   -3.1171    0.5680 C.3       1 <0>         0.0519
      9 N1          3.5244   -2.2457    1.0176 N.3       1 <0>        -0.5260
     10 C9          3.4013   -0.9183    0.4069 C.3       1 <0>         0.0968
     11 C10         4.8308   -2.8454    0.7147 C.3       1 <0>         0.0994
     12 C11         5.8979   -2.1637    1.5317 C.2       1 <0>         0.2290
     13 C12         6.5494   -2.8532    2.5127 C.2       1 <0>        -0.3060
     14 C13         7.5416   -2.1956    3.2613 C.2       1 <0>         0.5406
     15 O1          8.1442   -2.7818    4.1455 O.2       1 <0>        -0.5238
     16 N2          7.8151   -0.9031    2.9824 N.am      1 <0>        -0.6543
     17 H1          8.4959   -0.4301    3.4860 H         1 <0>         0.4060
     18 C14         7.1328   -0.2667    1.9923 C.2       1 <0>         0.6195
     19 N3          6.2074   -0.8915    1.2916 N.2       1 <0>        -0.5709
     20 N4          7.4157    1.0438    1.7155 N.pl3     1 <0>        -0.6018
     21 C15         6.6552    1.7265    0.6493 C.3       1 <0>         0.1153
     22 C16         7.5776    2.6107   -0.2095 C.3       1 <0>        -0.1585
     23 C17         8.8902    1.8948   -0.4390 C.3       1 <0>        -0.0091
     24 N5          9.8489    2.3052    0.5845 N.4       1 <0>        -0.3672
     25 C18         9.8152    1.5415    1.7724 C.3       1 <0>        -0.0597
     26 C19         8.4462    1.7128    2.4826 C.3       1 <0>         0.0952
     27 C20        11.2003    2.2177    0.0154 C.3       1 <0>         0.0847
     28 C21        12.1963    2.7781    0.9977 C.2       1 <0>        -0.1169
     29 C22        12.9194    2.0639    1.8789 C.2       1 <0>        -0.1378
     30 C23        13.7177    2.9847    2.5955 C.2       1 <0>        -0.2186
     31 C24        13.4347    4.2066    2.1094 C.2       1 <0>         0.0191
     32 O2         12.5169    4.0748    1.1378 O.3       1 <0>        -0.1679
     33 H2         -1.4557    1.1944    1.2019 H         1 <0>         0.1234
     34 H3          0.4380    2.6272    0.5403 H         1 <0>         0.1217
     35 H4          2.6590    1.6361    0.1829 H         1 <0>         0.1162
     36 H5         -1.1180   -1.2230    1.4990 H         1 <0>         0.1231
     37 H6          1.1607   -2.8549    2.2883 H         1 <0>         0.0861
     38 H7          0.2850   -3.1632    0.7718 H         1 <0>         0.0827
     39 H8          2.6304   -4.1455    0.8668 H         1 <0>         0.0856
     40 H9          2.3346   -3.0594   -0.5166 H         1 <0>         0.0445
     41 H10         3.5803   -0.9970   -0.6654 H         1 <0>         0.0453
     42 H11         4.1428   -0.2501    0.8447 H         1 <0>         0.1021
     43 H12         4.8086   -3.9073    0.9596 H         1 <0>         0.1027
     44 H13         5.0504   -2.7215   -0.3457 H         1 <0>         0.0639
     45 H14         6.3066   -3.8867    2.7111 H         1 <0>         0.1588
     46 H15         6.1819    0.9790    0.0127 H         1 <0>         0.1237
     47 H16         5.8837    2.3489    1.1027 H         1 <0>         0.0917
     48 H17         7.0998    2.8102   -1.1687 H         1 <0>         0.1326
     49 H18         7.7627    3.5524    0.3073 H         1 <0>         0.0913
     50 H19         8.7327    0.8179   -0.3792 H         1 <0>         0.1344
     51 H20         9.2776    2.1523   -1.4248 H         1 <0>         0.1420
     52 H21         9.9680    0.4899    1.5299 H         1 <0>         0.1318
     53 H22        10.6106    1.8753    2.4388 H         1 <0>         0.1509
     54 H23         8.2081    2.7736    2.5614 H         1 <0>         0.1195
     55 H24         8.4943    1.2782    3.4811 H         1 <0>         0.1194
     56 H25        11.4409    1.1747   -0.1909 H         1 <0>         0.1554
     57 H26        11.2422    2.7903   -0.9112 H         1 <0>         0.1502
     58 H27        12.8944    0.9926    2.0135 H         1 <0>         0.1615
     59 H28        14.4197    2.7519    3.3825 H         1 <0>         0.1651
     60 H29        13.8741    5.1357    2.4413 H         1 <0>         0.2200
     61 H30         9.6690    3.2695    0.8207 H         1 <0>         0.4219
@<TRIPOS>BOND
     1    1    6 ar
     2    1    2 ar
     3    1   33 1
     4    2    3 ar
     5    2   34 1
     6    3    4 ar
     7    3   35 1
     8    4   10 1
     9    4    5 ar
    10    5    6 ar
    11    5    7 1
    12    6   36 1
    13    7    8 1
    14    7   37 1
    15    7   38 1
    16    8    9 1
    17    8   39 1
    18    8   40 1
    19    9   10 1
    20    9   11 1
    21   10   41 1
    22   10   42 1
    23   11   12 1
    24   11   43 1
    25   11   44 1
    26   12   19 1
    27   12   13 2
    28   13   14 1
    29   13   45 1
    30   14   15 2
    31   14   16 am
    32   16   17 1
    33   16   18 1
    34   18   19 2
    35   18   20 1
    36   20   26 1
    37   20   21 1
    38   21   22 1
    39   21   46 1
    40   21   47 1
    41   22   23 1
    42   22   48 1
    43   22   49 1
    44   23   24 1
    45   23   50 1
    46   23   51 1
    47   24   25 1
    48   24   27 1
    49   24   61 1
    50   25   26 1
    51   25   52 1
    52   25   53 1
    53   26   54 1
    54   26   55 1
    55   27   28 1
    56   27   56 1
    57   27   57 1
    58   28   32 1
    59   28   29 2
    60   29   30 1
    61   29   58 1
    62   30   31 2
    63   30   59 1
    64   31   32 1
    65   31   60 1
@<TRIPOS>MOLECULE
ZINC49590615
   55    60     0     0     0
SMALL
USER_CHARGES

@<TRIPOS>ATOM
      1 C1          5.0148   -3.0502   -1.7572 C.ar      1 <0>        -0.1181
      2 C2          5.6127   -1.8129   -1.5595 C.ar      1 <0>        -0.0892
      3 C3          4.9380   -0.8022   -0.9110 C.ar      1 <0>        -0.1136
      4 C4          3.6440   -1.0207   -0.4489 C.ar      1 <0>         0.0952
      5 C5          3.0425   -2.2760   -0.6522 C.ar      1 <0>        -0.0977
      6 C6          3.7450   -3.2865   -1.3117 C.ar      1 <0>        -0.0954
      7 C7          1.7058   -2.1849   -0.0601 C.2       1 <0>        -0.2644
      8 C8          1.5820   -0.9456    0.4408 C.2       1 <0>         0.1279
      9 N1          2.7303   -0.2356    0.2178 N.pl3     1 <0>        -0.5772
     10 H1          2.8784    0.6839    0.4888 H         1 <0>         0.4291
     11 C9          0.6664   -3.2754   -0.0210 C.3       1 <0>         0.0833
     12 N2          0.0675   -3.4290   -1.3536 N.4       1 <0>        -0.3945
     13 C10        -0.7026   -2.2143   -1.6959 C.3       1 <0>        -0.0041
     14 C11        -1.9285   -2.7332   -2.4881 C.3       1 <0>        -0.1455
     15 C12        -2.2482   -4.0545   -1.7406 C.3       1 <0>        -0.1316
     16 C13        -0.8505   -4.5828   -1.3550 C.3       1 <0>         0.1237
     17 H2         -0.8844   -5.0309   -0.3620 H         1 <0>         0.1873
     18 C14        -0.3910   -5.6022   -2.3654 C.2       1 <0>         0.2373
     19 N3         -0.3248   -6.8885   -2.1725 N.2       1 <0>        -0.4829
     20 C15         0.1264   -7.4983   -3.2835 C.2       1 <0>         0.3168
     21 N4          0.3514   -6.5878   -4.1987 N.2       1 <0>        -0.2925
     22 O1          0.0125   -5.3387   -3.6149 O.3       1 <0>        -0.0972
     23 C16         0.3351   -8.9582   -3.4454 C.ar      1 <0>        -0.1146
     24 C17         0.8164   -9.4755   -4.6524 C.ar      1 <0>        -0.0197
     25 C18         0.9955  -10.8417   -4.7570 C.ar      1 <0>        -0.1593
     26 C19         0.6928  -11.6527   -3.6642 C.ar      1 <0>         0.2073
     27 N5          0.2378  -11.1279   -2.5336 N.ar      1 <0>        -0.4712
     28 C20         0.0595   -9.8319   -2.3946 C.ar      1 <0>         0.1745
     29 C21         0.8813  -13.1203   -3.7668 C.ar      1 <0>        -0.0249
     30 C22         1.3641  -13.7018   -4.9428 C.ar      1 <0>        -0.1489
     31 C23         1.5249  -15.0715   -4.9952 C.ar      1 <0>         0.1018
     32 N6          1.2299  -15.8282   -3.9558 N.ar      1 <0>        -0.4705
     33 C24         0.7720  -15.3197   -2.8281 C.ar      1 <0>         0.0998
     34 C25         0.5865  -13.9593   -2.6882 C.ar      1 <0>        -0.1266
     35 H3          5.5561   -3.8307   -2.2713 H         1 <0>         0.1308
     36 H4          6.6171   -1.6413   -1.9174 H         1 <0>         0.1363
     37 H5          5.4120    0.1566   -0.7613 H         1 <0>         0.1306
     38 H6          3.2862   -4.2514   -1.4694 H         1 <0>         0.1149
     39 H7          0.7061   -0.5654    0.9454 H         1 <0>         0.1830
     40 H8          1.1350   -4.2134    0.2770 H         1 <0>         0.1351
     41 H9         -0.1095   -3.0124    0.6979 H         1 <0>         0.1421
     42 H10        -1.0257   -1.7019   -0.7897 H         1 <0>         0.1393
     43 H11        -0.1039   -1.5478   -2.3168 H         1 <0>         0.1386
     44 H12        -2.7621   -2.0343   -2.4196 H         1 <0>         0.1282
     45 H13        -1.6676   -2.9266   -3.5286 H         1 <0>         0.1023
     46 H14        -2.8454   -3.8587   -0.8500 H         1 <0>         0.1265
     47 H15        -2.7573   -4.7571   -2.4004 H         1 <0>         0.1179
     48 H16         1.0423   -8.8230   -5.4828 H         1 <0>         0.1508
     49 H17         1.3652  -11.2758   -5.6742 H         1 <0>         0.1553
     50 H18        -0.3086   -9.4409   -1.4575 H         1 <0>         0.1762
     51 H19         1.6072  -13.0884   -5.7977 H         1 <0>         0.1413
     52 H20         1.8969  -15.5301   -5.8995 H         1 <0>         0.1645
     53 H21         0.5432  -15.9763   -2.0018 H         1 <0>         0.1643
     54 H22         0.2156  -13.5493   -1.7605 H         1 <0>         0.1493
     55 H23         0.7941   -3.5723   -2.0388 H         1 <0>         0.4282
@<TRIPOS>BOND
     1    1    6 ar
     2    1    2 ar
     3    1   35 1
     4    2    3 ar
     5    2   36 1
     6    3    4 ar
     7    3   37 1
     8    4    9 1
     9    4    5 ar
    10    5    6 ar
    11    5    7 1
    12    6   38 1
    13    7    8 2
    14    7   11 1
    15    8    9 1
    16    8   39 1
    17    9   10 1
    18   11   12 1
    19   11   40 1
    20   11   41 1
    21   12   16 1
    22   12   13 1
    23   12   55 1
    24   13   14 1
    25   13   42 1
    26   13   43 1
    27   14   15 1
    28   14   44 1
    29   14   45 1
    30   15   16 1
    31   15   46 1
    32   15   47 1
    33   16   17 1
    34   16   18 1
    35   18   22 1
    36   18   19 2
    37   19   20 1
    38   20   21 2
    39   20   23 1
    40   21   22 1
    41   23   28 ar
    42   23   24 ar
    43   24   25 ar
    44   24   48 1
    45   25   26 ar
    46   25   49 1
    47   26   27 ar
    48   26   29 1
    49   27   28 ar
    50   28   50 1
    51   29   34 ar
    52   29   30 ar
    53   30   31 ar
    54   30   51 1
    55   31   32 ar
    56   31   52 1
    57   32   33 ar
    58   33   34 ar
    59   33   53 1
    60   34   54 1
@<TRIPOS>MOLECULE
ZINC63375799
   59    63     0     0     0
SMALL
USER_CHARGES

@<TRIPOS>ATOM
      1 C1         -0.0187    1.5258    0.0104 C.3       1 <0>        -0.1643
      2 C2          0.0021   -0.0041    0.0020 C.3       1 <0>         0.1988
      3 H1         -1.0173   -0.3900    0.0097 H         1 <0>         0.1103
      4 C3          0.7459   -0.5118   -1.2422 C.3       1 <0>         0.0696
      5 H2          1.6633    0.0559   -1.3979 H         1 <0>         0.1796
      6 C4          1.0592   -1.9826   -1.0046 C.2       1 <0>         0.0701
      7 C5          0.5155   -2.6488   -2.0186 C.ar      1 <0>        -0.1581
      8 C6          0.5342   -4.0771   -2.3723 C.ar      1 <0>         0.0027
      9 C7         -0.1475   -4.4252   -3.4957 C.ar      1 <0>        -0.1583
     10 C8         -0.8370   -3.5062   -4.2928 C.ar      1 <0>         0.0577
     11 C9         -0.9042   -2.1739   -4.0445 C.ar      1 <0>        -0.2057
     12 C10        -0.2226   -1.6864   -2.8915 C.ar      1 <0>         0.3342
     13 N1         -0.1042   -0.4534   -2.4334 N.pl3     1 <0>        -0.5821
     14 C11         1.7904   -2.4877    0.2173 C.3       1 <0>        -0.0841
     15 C12         1.0434   -1.9229    1.4384 C.3       1 <0>         0.0986
     16 H3          0.1397   -2.4939    1.6515 H         1 <0>         0.1482
     17 N2          0.7361   -0.5024    1.1729 N.am      1 <0>        -0.6267
     18 C13         1.2720    0.2039    2.1760 C.2       1 <0>         0.7304
     19 O1          1.1054    1.3979    2.3294 O.2       1 <0>        -0.5119
     20 N3          2.0129   -0.5589    2.9919 N.am      1 <0>        -0.5236
     21 C14         1.9691   -1.8813    2.6347 C.2       1 <0>         0.5469
     22 O2          2.5401   -2.8174    3.1518 O.2       1 <0>        -0.4304
     23 C15         2.7379   -0.0691    4.0803 C.ar      1 <0>         0.1752
     24 C16         2.1488    0.0030    5.3347 C.ar      1 <0>        -0.1023
     25 C17         2.8672    0.4871    6.4097 C.ar      1 <0>        -0.0770
     26 C18         4.1783    0.9037    6.2460 C.ar      1 <0>        -0.1023
     27 C19         4.7791    0.8396    5.0073 C.ar      1 <0>        -0.0778
     28 C20         4.0663    0.3467    3.9121 C.ar      1 <0>        -0.1224
     29 C21         4.7055    0.2696    2.5843 C.2       1 <0>         0.5690
     30 O3          4.0800   -0.1553    1.6322 O.2       1 <0>        -0.5511
     31 N4          5.9827    0.6704    2.4270 N.am      1 <0>        -0.7182
     32 C22         6.6173    0.5939    1.1088 C.3       1 <0>         0.1259
     33 C23         8.0558    1.1060    1.2049 C.3       1 <0>        -0.1106
     34 C24         8.7576    0.9106   -0.1406 C.3       1 <0>        -0.1462
     35 C25         8.0448    2.5934    1.5631 C.3       1 <0>        -0.1516
     36 H4          1.0039    1.9031    0.0027 H         1 <0>         0.0823
     37 H5         -0.5459    1.8868   -0.8726 H         1 <0>         0.0759
     38 H6         -0.5289    1.8773    0.9072 H         1 <0>         0.1010
     39 H7          1.0595   -4.8068   -1.7739 H         1 <0>         0.1719
     40 H8         -0.1568   -5.4649   -3.7878 H         1 <0>         0.1566
     41 H9         -1.3511   -3.8823   -5.1650 H         1 <0>         0.1590
     42 H10        -1.4521   -1.5087   -4.6955 H         1 <0>         0.1698
     43 H11         1.7723   -3.5773    0.2395 H         1 <0>         0.1335
     44 H12         2.8200   -2.1301    0.2109 H         1 <0>         0.1394
     45 H13         1.1270   -0.3195    5.4701 H         1 <0>         0.1370
     46 H14         2.4043    0.5416    7.3839 H         1 <0>         0.1442
     47 H15         4.7321    1.2809    7.0931 H         1 <0>         0.1434
     48 H16         5.8012    1.1662    4.8846 H         1 <0>         0.1365
     49 H17         6.4816    1.0094    3.1866 H         1 <0>         0.4033
     50 H18         6.6221   -0.4413    0.7674 H         1 <0>         0.0697
     51 H19         6.0597    1.2073    0.4010 H         1 <0>         0.0688
     52 H20         8.5885    0.5503    1.9766 H         1 <0>         0.0798
     53 H21         8.2249    1.4663   -0.9123 H         1 <0>         0.0578
     54 H22         9.7825    1.2754   -0.0722 H         1 <0>         0.0654
     55 H23         8.7655   -0.1491   -0.3958 H         1 <0>         0.0584
     56 H24         7.5448    2.7326    2.5216 H         1 <0>         0.0532
     57 H25         9.0697    2.9582    1.6315 H         1 <0>         0.0638
     58 H26         7.5121    3.1491    0.7914 H         1 <0>         0.0581
     59 H27        -0.5054    0.3477   -2.8052 H         1 <0>         0.4586
@<TRIPOS>BOND
     1    1    2 1
     2    1   36 1
     3    1   37 1
     4    1   38 1
     5    2    3 1
     6    2   17 1
     7    2    4 1
     8    4    5 1
     9    4   13 1
    10    4    6 1
    11    6    7 2
    12    6   14 1
    13    7   12 ar
    14    7    8 ar
    15    8    9 ar
    16    8   39 1
    17    9   10 ar
    18    9   40 1
    19   10   11 ar
    20   10   41 1
    21   11   12 ar
    22   11   42 1
    23   12   13 2
    24   13   59 1
    25   14   15 1
    26   14   43 1
    27   14   44 1
    28   15   16 1
    29   15   21 1
    30   15   17 1
    31   17   18 am
    32   18   19 2
    33   18   20 am
    34   20   21 am
    35   20   23 1
    36   21   22 2
    37   23   28 ar
    38   23   24 ar
    39   24   25 ar
    40   24   45 1
    41   25   26 ar
    42   25   46 1
    43   26   27 ar
    44   26   47 1
    45   27   28 ar
    46   27   48 1
    47   28   29 1
    48   29   30 2
    49   29   31 am
    50   31   32 1
    51   31   49 1
    52   32   33 1
    53   32   50 1
    54   32   51 1
    55   33   34 1
    56   33   35 1
    57   33   52 1
    58   34   53 1
    59   34   54 1
    60   34   55 1
    61   35   56 1
    62   35   57 1
    63   35   58 1
@<TRIPOS>MOLECULE
ZINC66500727
   53    57     0     0     0
SMALL
USER_CHARGES

@<TRIPOS>ATOM
      1 C1          0.0879    0.4496    1.0298 C.ar      1 <0>        -0.0752
      2 C2          1.3475    0.7377    1.5224 C.ar      1 <0>        -0.1055
      3 C3          2.2562   -0.2842    1.7421 C.ar      1 <0>         0.0782
      4 C4          1.8976   -1.6017    1.4658 C.ar      1 <0>         0.0414
      5 C5          0.6343   -1.8828    0.9724 C.ar      1 <0>        -0.0798
      6 C6         -0.2679   -0.8575    0.7557 C.ar      1 <0>        -0.1571
      7 C7         -1.6419   -1.1659    0.2190 C.3       1 <0>         0.0376
      8 N1         -1.5801   -1.2885   -1.2436 N.4       1 <0>        -0.3862
      9 C8         -2.8499   -1.8320   -1.7436 C.3       1 <0>         0.0335
     10 C9         -2.7341   -2.1005   -3.2219 C.2       1 <0>         0.1425
     11 C10        -2.5417   -3.3633   -3.6672 C.2       1 <0>        -0.2305
     12 C11        -2.4343   -3.6104   -5.0506 C.2       1 <0>         0.5596
     13 O1         -2.2614   -4.7459   -5.4565 O.2       1 <0>        -0.4560
     14 N2         -2.5238   -2.5876   -5.9231 N.am      1 <0>        -0.3642
     15 C12        -2.7180   -1.3157   -5.4668 C.2       1 <0>         0.2836
     16 N3         -2.8287   -1.0725   -4.1108 N.pl3     1 <0>        -0.6052
     17 C13        -2.7688   -0.4963   -6.5543 C.2       1 <0>        -0.2543
     18 C14        -2.6023   -1.2854   -7.6935 C.2       1 <0>         0.1021
     19 N4         -2.4560   -2.5324   -7.3208 N.2       1 <0>        -0.2432
     20 C15        -1.3467    0.0352   -1.8365 C.3       1 <0>         0.0115
     21 C16         0.1375    0.3896   -1.7248 C.3       1 <0>        -0.1719
     22 C17         0.3805    1.7682   -2.3422 C.3       1 <0>        -0.1149
     23 C18        -0.4511    2.8144   -1.5974 C.3       1 <0>        -0.1318
     24 C19        -1.9353    2.4600   -1.7090 C.3       1 <0>        -0.1178
     25 C20        -2.1783    1.0814   -1.0916 C.3       1 <0>        -0.1552
     26 O2          2.9546   -2.4128    1.7627 O.3       1 <0>        -0.2985
     27 C21         4.0989   -1.5419    1.8357 C.3       1 <0>         0.2106
     28 O3          3.5377   -0.2704    2.2120 O.3       1 <0>        -0.2960
     29 H1         -0.6208    1.2473    0.8630 H         1 <0>         0.1528
     30 H2          1.6228    1.7600    1.7357 H         1 <0>         0.1520
     31 H3          0.3536   -2.9032    0.7574 H         1 <0>         0.1463
     32 H4         -1.9974   -2.1030    0.6474 H         1 <0>         0.1483
     33 H5         -2.3260   -0.3610    0.4875 H         1 <0>         0.1518
     34 H6         -3.0776   -2.7617   -1.2221 H         1 <0>         0.1723
     35 H7         -3.6483   -1.1113   -1.5667 H         1 <0>         0.1560
     36 H8         -2.4701   -4.1801   -2.9643 H         1 <0>         0.1883
     37 H9         -2.9128    0.5740   -6.5378 H         1 <0>         0.1698
     38 H10        -2.5955   -0.9274   -8.7124 H         1 <0>         0.2106
     39 H11        -1.6385    0.0195   -2.8866 H         1 <0>         0.1268
     40 H12         0.4293    0.4053   -0.6747 H         1 <0>         0.1200
     41 H13         0.7299   -0.3557   -2.2554 H         1 <0>         0.0824
     42 H14         1.4378    2.0207   -2.2627 H         1 <0>         0.0847
     43 H15         0.0887    1.7526   -3.3923 H         1 <0>         0.0710
     44 H16        -0.1593    2.8301   -0.5473 H         1 <0>         0.0712
     45 H17        -0.2780    3.7966   -2.0373 H         1 <0>         0.0822
     46 H18        -2.5278    3.2053   -1.1784 H         1 <0>         0.0899
     47 H19        -2.2271    2.4444   -2.7591 H         1 <0>         0.0737
     48 H20        -3.2357    0.8289   -1.1711 H         1 <0>         0.0888
     49 H21        -1.8865    1.0971   -0.0415 H         1 <0>         0.1007
     50 H22         4.7984   -1.8916    2.5950 H         1 <0>         0.1456
     51 H23         4.5894   -1.4718    0.8649 H         1 <0>         0.0973
     52 H24        -2.9703   -0.1676   -3.7912 H         1 <0>         0.4320
     53 H25        -0.8256   -1.9085   -1.4976 H         1 <0>         0.4289
@<TRIPOS>BOND
     1    1    6 ar
     2    1    2 ar
     3    1   29 1
     4    2    3 ar
     5    2   30 1
     6    3   28 1
     7    3    4 ar
     8    4    5 ar
     9    4   26 1
    10    5    6 ar
    11    5   31 1
    12    6    7 1
    13    7    8 1
    14    7   32 1
    15    7   33 1
    16    8    9 1
    17    8   20 1
    18    8   53 1
    19    9   10 1
    20    9   34 1
    21    9   35 1
    22   10   16 1
    23   10   11 2
    24   11   12 1
    25   11   36 1
    26   12   13 2
    27   12   14 am
    28   14   19 1
    29   14   15 1
    30   15   16 1
    31   15   17 2
    32   16   52 1
    33   17   18 1
    34   17   37 1
    35   18   19 2
    36   18   38 1
    37   20   25 1
    38   20   21 1
    39   20   39 1
    40   21   22 1
    41   21   40 1
    42   21   41 1
    43   22   23 1
    44   22   42 1
    45   22   43 1
    46   23   24 1
    47   23   44 1
    48   23   45 1
    49   24   25 1
    50   24   46 1
    51   24   47 1
    52   25   48 1
    53   25   49 1
    54   26   27 1
    55   27   28 1
    56   27   50 1
    57   27   51 1
@<TRIPOS>MOLECULE
ZINC02695988
   55    58     0     0     0
SMALL
USER_CHARGES
N-benzyl-2-[2-oxo-3-(4-oxo-3-sec-butyl-2-thioxo-thiazolidin-5-ylidene)-indolin-1-yl]-acetamide
@<TRIPOS>ATOM
      1 C1          2.1526  -10.7725    5.6397 C.3       1 <0>        -0.1532
      2 C2          2.7541  -11.3756    4.3687 C.3       1 <0>        -0.1542
      3 C3          2.0395  -10.8008    3.1439 C.3       1 <0>         0.1147
      4 H1          0.9664  -10.9670    3.2382 H         1 <0>         0.1180
      5 C4          2.5540  -11.4946    1.8810 C.3       1 <0>        -0.1832
      6 N1          2.3049   -9.3629    3.0538 N.am      1 <0>        -0.5137
      7 C5          1.2904   -8.5155    3.1001 C.2       1 <0>         0.5486
      8 O1          0.1419   -8.8957    3.2159 O.2       1 <0>        -0.4387
      9 C6          1.6331   -7.0707    2.9977 C.2       1 <0>        -0.1580
     10 C7          0.8044   -5.9655    3.0117 C.2       1 <0>         0.0398
     11 C8         -0.6725   -5.9481    2.9653 C.ar      1 <0>        -0.1381
     12 C9         -1.6364   -6.9508    2.8993 C.ar      1 <0>        -0.0338
     13 C10        -2.9744   -6.6133    2.8825 C.ar      1 <0>        -0.1499
     14 C11        -3.3554   -5.2821    2.9200 C.ar      1 <0>        -0.0517
     15 C12        -2.4076   -4.2801    2.9820 C.ar      1 <0>        -0.1438
     16 C13        -1.0549   -4.5994    3.0071 C.ar      1 <0>         0.1787
     17 N2          0.0821   -3.8015    3.0664 N.am      1 <0>        -0.5284
     18 C14         1.2020   -4.5444    3.0754 C.2       1 <0>         0.5624
     19 O2          2.3416   -4.1212    3.1262 O.2       1 <0>        -0.4572
     20 C15         0.0617   -2.3376    3.1188 C.3       1 <0>         0.0945
     21 C16         0.0996   -1.7842    1.7176 C.2       1 <0>         0.4950
     22 O3          0.1397   -2.5384    0.7687 O.2       1 <0>        -0.5195
     23 N3          0.0890   -0.4512    1.5190 N.am      1 <0>        -0.7218
     24 C17         0.1259    0.0868    0.1569 C.3       1 <0>         0.1627
     25 C18         0.1049    1.5927    0.2108 C.ar      1 <0>        -0.1139
     26 C19        -1.1009    2.2683    0.1914 C.ar      1 <0>        -0.1001
     27 C20        -1.1203    3.6495    0.2453 C.ar      1 <0>        -0.1214
     28 C21         0.0665    4.3553    0.3093 C.ar      1 <0>        -0.1094
     29 C22         1.2726    3.6799    0.3234 C.ar      1 <0>        -0.1206
     30 C23         1.2918    2.2986    0.2739 C.ar      1 <0>        -0.0997
     31 S1          3.4132   -7.1594    2.8595 S.3       1 <0>         0.1223
     32 C24         3.5774   -8.9357    2.9315 C.2       1 <0>         0.2603
     33 S2          5.0089   -9.8723    2.8627 S.2       1 <0>        -0.2960
     34 H2          1.0915  -11.0162    5.6906 H         1 <0>         0.0581
     35 H3          2.6617  -11.1819    6.5122 H         1 <0>         0.0655
     36 H4          2.2763   -9.6897    5.6218 H         1 <0>         0.0412
     37 H5          2.6304  -12.4584    4.3866 H         1 <0>         0.0921
     38 H6          3.8152  -11.1318    4.3178 H         1 <0>         0.1014
     39 H7          3.6272  -11.3284    1.7868 H         1 <0>         0.0951
     40 H8          2.3565  -12.5644    1.9481 H         1 <0>         0.0854
     41 H9          2.0449  -11.0851    1.0085 H         1 <0>         0.0596
     42 H10        -1.3384   -7.9885    2.8712 H         1 <0>         0.1650
     43 H11        -3.7254   -7.3880    2.8337 H         1 <0>         0.1370
     44 H12        -4.4043   -5.0255    2.9008 H         1 <0>         0.1382
     45 H13        -2.7178   -3.2461    3.0107 H         1 <0>         0.1311
     46 H14         0.9299   -1.9818    3.6736 H         1 <0>         0.1283
     47 H15        -0.8490   -2.0045    3.6165 H         1 <0>         0.1251
     48 H16         0.0570    0.1520    2.2780 H         1 <0>         0.4042
     49 H17        -0.7423   -0.2690   -0.3979 H         1 <0>         0.0788
     50 H18         1.0366   -0.2463   -0.3408 H         1 <0>         0.0786
     51 H19        -2.0280    1.7169    0.1375 H         1 <0>         0.1240
     52 H20        -2.0625    4.1771    0.2346 H         1 <0>         0.1254
     53 H21         0.0515    5.4345    0.3487 H         1 <0>         0.1248
     54 H22         2.1998    4.2314    0.3734 H         1 <0>         0.1257
     55 H23         2.2340    1.7709    0.2849 H         1 <0>         0.1246
@<TRIPOS>BOND
     1    1    2 1
     2    1   34 1
     3    1   35 1
     4    1   36 1
     5    2    3 1
     6    2   37 1
     7    2   38 1
     8    3    4 1
     9    3    5 1
    10    3    6 1
    11    5   39 1
    12    5   40 1
    13    5   41 1
    14    6   32 1
    15    6    7 am
    16    7    8 2
    17    7    9 1
    18    9   10 2
    19    9   31 1
    20   10   18 1
    21   10   11 1
    22   11   16 ar
    23   11   12 ar
    24   12   13 ar
    25   12   42 1
    26   13   14 ar
    27   13   43 1
    28   14   15 ar
    29   14   44 1
    30   15   16 ar
    31   15   45 1
    32   16   17 1
    33   17   18 am
    34   17   20 1
    35   18   19 2
    36   20   21 1
    37   20   46 1
    38   20   47 1
    39   21   22 2
    40   21   23 am
    41   23   24 1
    42   23   48 1
    43   24   25 1
    44   24   49 1
    45   24   50 1
    46   25   30 ar
    47   25   26 ar
    48   26   27 ar
    49   26   51 1
    50   27   28 ar
    51   27   52 1
    52   28   29 ar
    53   28   53 1
    54   29   30 ar
    55   29   54 1
    56   30   55 1
    57   31   32 1
    58   32   33 2
@<TRIPOS>MOLECULE
ZINC14230951
   51    53     0     0     0
SMALL
USER_CHARGES
3-(2-hydroxyphenyl)-1-[4-[2-(trifluoromethyl)phenyl]sulfonylpiperazin-1-yl]propan-1-one
@<TRIPOS>ATOM
      1 C1          0.8814   -2.5231    1.1192 C.ar      1 <0>        -0.1256
      2 C2          0.9713   -1.8298   -0.0740 C.ar      1 <0>        -0.1059
      3 C3          0.9361   -0.4491   -0.0762 C.ar      1 <0>        -0.1435
      4 C4          0.8210    0.2427    1.1211 C.ar      1 <0>         0.1075
      5 C5          0.7305   -0.4550    2.3165 C.ar      1 <0>        -0.1116
      6 C6          0.7609   -1.8363    2.3129 C.ar      1 <0>        -0.1005
      7 C7          0.5987    0.2930    3.6181 C.3       1 <0>        -0.0572
      8 C8         -0.8739    0.6236    3.8695 C.3       1 <0>        -0.1332
      9 C9         -1.0057    1.3716    5.1711 C.2       1 <0>         0.5201
     10 O1         -0.0190    1.6162    5.8325 O.2       1 <0>        -0.5332
     11 N1         -2.2201    1.7688    5.6000 N.am      1 <0>        -0.6149
     12 C10        -3.4236    1.4847    4.8059 C.3       1 <0>         0.0862
     13 C11        -4.4254    0.7295    5.6958 C.3       1 <0>         0.1015
     14 N2         -4.5690    1.4597    6.9631 N.pl3     1 <0>        -0.9948
     15 C12        -3.3649    1.7487    7.7545 C.3       1 <0>         0.0988
     16 C13        -2.3637    2.4990    6.8673 C.3       1 <0>         0.0915
     17 S1         -6.0610    1.9487    7.4897 S.o2      1 <0>         2.6690
     18 O2         -7.0007    1.0196    6.9671 O.2       1 <0>        -0.9280
     19 O3         -5.9365    2.2049    8.8818 O.2       1 <0>        -0.9286
     20 C14        -6.4030    3.4970    6.7213 C.ar      1 <0>        -0.6311
     21 C15        -5.3902    4.1931    6.0880 C.ar      1 <0>        -0.0398
     22 C16        -5.6595    5.4054    5.4811 C.ar      1 <0>        -0.1018
     23 C17        -6.9394    5.9268    5.5164 C.ar      1 <0>        -0.0663
     24 C18        -7.9509    5.2334    6.1540 C.ar      1 <0>        -0.0825
     25 C19        -7.6826    4.0183    6.7565 C.ar      1 <0>        -0.0876
     26 C20        -8.7853    3.2625    7.4522 C.3       1 <0>         0.4751
     27 F1         -9.9421    4.0485    7.4828 F         1 <0>        -0.1660
     28 F2         -9.0462    2.0755    6.7591 F         1 <0>        -0.1443
     29 F3         -8.3911    2.9616    8.7603 F         1 <0>        -0.1658
     30 O4          0.7914    1.6014    1.1220 O.3       1 <0>        -0.4972
     31 H1          0.9050   -3.6028    1.1184 H         1 <0>         0.1260
     32 H2          1.0650   -2.3687   -1.0053 H         1 <0>         0.1267
     33 H3          1.0018    0.0918   -1.0087 H         1 <0>         0.1284
     34 H4          0.6902   -2.3800    3.2434 H         1 <0>         0.1270
     35 H5          0.9763   -0.3254    4.4324 H         1 <0>         0.0795
     36 H6          1.1747    1.2169    3.5662 H         1 <0>         0.0805
     37 H7         -1.2515    1.2420    3.0552 H         1 <0>         0.1003
     38 H8         -1.4499   -0.3003    3.9214 H         1 <0>         0.0953
     39 H9         -3.8663    2.4206    4.4650 H         1 <0>         0.0778
     40 H10        -3.1581    0.8685    3.9469 H         1 <0>         0.1058
     41 H11        -4.0565   -0.2770    5.8934 H         1 <0>         0.0902
     42 H12        -5.3910    0.6757    5.1931 H         1 <0>         0.1069
     43 H13        -2.9204    0.8148    8.0986 H         1 <0>         0.0896
     44 H14        -3.6278    2.3668    8.6129 H         1 <0>         0.1105
     45 H15        -1.3981    2.5528    7.3700 H         1 <0>         0.1130
     46 H16        -2.7298    3.5065    6.6695 H         1 <0>         0.0723
     47 H17        -4.3894    3.7879    6.0643 H         1 <0>         0.1450
     48 H18        -4.8691    5.9474    4.9832 H         1 <0>         0.1448
     49 H19        -7.1489    6.8761    5.0460 H         1 <0>         0.1476
     50 H20        -8.9506    5.6409    6.1818 H         1 <0>         0.1516
     51 H21         1.6626    2.0137    1.2000 H         1 <0>         0.3908
@<TRIPOS>BOND
     1    1    6 ar
     2    1    2 ar
     3    1   31 1
     4    2    3 ar
     5    2   32 1
     6    3    4 ar
     7    3   33 1
     8    4    5 ar
     9    4   30 1
    10    5    6 ar
    11    5    7 1
    12    6   34 1
    13    7    8 1
    14    7   35 1
    15    7   36 1
    16    8    9 1
    17    8   37 1
    18    8   38 1
    19    9   10 2
    20    9   11 am
    21   11   16 1
    22   11   12 1
    23   12   13 1
    24   12   39 1
    25   12   40 1
    26   13   14 1
    27   13   41 1
    28   13   42 1
    29   14   15 1
    30   14   17 1
    31   15   16 1
    32   15   43 1
    33   15   44 1
    34   16   45 1
    35   16   46 1
    36   17   18 2
    37   17   19 2
    38   17   20 1
    39   20   25 ar
    40   20   21 ar
    41   21   22 ar
    42   21   47 1
    43   22   23 ar
    44   22   48 1
    45   23   24 ar
    46   23   49 1
    47   24   25 ar
    48   24   50 1
    49   25   26 1
    50   26   27 1
    51   26   28 1
    52   26   29 1
    53   30   51 1
@<TRIPOS>MOLECULE
ZINC01154606
   53    56     0     0     0
SMALL
USER_CHARGES
(2E)-2-cyano-N-(2-furylmethyl)-2-[(5S)-4-oxo-3-phenyl-5-(p-tolylmethyl)thiazolidin-2-ylidene]acetamide
@<TRIPOS>ATOM
      1 C1          1.9551    0.3703   -0.4242 C.3       1 <0>        -0.1214
      2 C2          0.6715    1.1573   -0.4882 C.ar      1 <0>        -0.0780
      3 C3         -0.4385    0.6197   -1.1125 C.ar      1 <0>        -0.1187
      4 C4         -1.6143    1.3439   -1.1758 C.ar      1 <0>        -0.1058
      5 C5         -1.6830    2.6016   -0.6064 C.ar      1 <0>        -0.1054
      6 C6         -0.5732    3.1389    0.0186 C.ar      1 <0>        -0.1009
      7 C7          0.6041    2.4167    0.0777 C.ar      1 <0>        -0.1184
      8 C8         -2.9662    3.3891   -0.6713 C.3       1 <0>        -0.0618
      9 C9         -2.9791    4.2394   -1.9432 C.3       1 <0>        -0.1053
     10 H1         -2.8681    3.4493   -2.7005 H         1 <0>         0.1693
     11 C10        -4.3083    4.9580   -2.1122 C.2       1 <0>         0.5219
     12 O1         -5.3531    4.3579   -2.2475 O.2       1 <0>        -0.4519
     13 N1         -4.2524    6.2789   -2.1019 N.am      1 <0>        -0.4988
     14 C11        -3.0731    6.9667   -1.9487 C.2       1 <0>         0.2227
     15 C12        -2.8791    8.3482   -1.9196 C.2       1 <0>        -0.1225
     16 C13        -1.5515    8.8847   -1.9060 C.1       1 <0>         0.2662
     17 N2         -0.4983    9.3103   -1.8951 N.1       1 <0>        -0.3891
     18 C14        -4.0317    9.2482   -1.9031 C.2       1 <0>         0.5905
     19 O2         -4.4663    9.7001   -2.9469 O.2       1 <0>        -0.5081
     20 N3         -4.6128    9.5775   -0.7324 N.am      1 <0>        -0.7240
     21 C15        -5.7674   10.4791   -0.7159 C.3       1 <0>         0.1962
     22 C16        -6.2242   10.6842    0.7055 C.2       1 <0>        -0.0370
     23 C17        -5.7887   11.6444    1.5409 C.2       1 <0>        -0.1808
     24 C18        -6.4795   11.4691    2.7620 C.2       1 <0>        -0.2166
     25 C19        -7.2897   10.4072    2.6024 C.2       1 <0>        -0.0279
     26 O3         -7.1309    9.9359    1.3549 O.3       1 <0>        -0.1695
     27 S1         -1.8463    5.6773   -1.7942 S.3       1 <0>        -0.0148
     28 C20        -5.4414    7.0050   -2.2524 C.ar      1 <0>         0.0690
     29 C21        -6.2655    7.2252   -1.1569 C.ar      1 <0>        -0.0816
     30 C22        -7.4342    7.9457   -1.3074 C.ar      1 <0>        -0.1119
     31 C23        -7.7894    8.4381   -2.5498 C.ar      1 <0>        -0.0984
     32 C24        -6.9736    8.2155   -3.6439 C.ar      1 <0>        -0.0983
     33 C25        -5.8008    7.5006   -3.4986 C.ar      1 <0>        -0.0641
     34 H2          1.8159   -0.5995   -0.9243 H         1 <0>         0.0668
     35 H3          2.2313    0.2043    0.6275 H         1 <0>         0.0720
     36 H4          2.7550    0.9318   -0.9291 H         1 <0>         0.0722
     37 H5         -0.3858   -0.3642   -1.5546 H         1 <0>         0.1245
     38 H6         -2.4802    0.9257   -1.6674 H         1 <0>         0.1248
     39 H7         -0.6258    4.1229    0.4605 H         1 <0>         0.1269
     40 H8          1.4712    2.8366    0.5657 H         1 <0>         0.1247
     41 H9         -3.8210    2.6968   -0.6844 H         1 <0>         0.1057
     42 H10        -3.0389    4.0449    0.2089 H         1 <0>         0.0888
     43 H11        -4.2202    9.1693    0.2106 H         1 <0>         0.4269
     44 H12        -5.4826   11.4476   -1.1529 H         1 <0>         0.0986
     45 H13        -6.5856   10.0379   -1.3040 H         1 <0>         0.0966
     46 H14        -5.0541   12.4047    1.3204 H         1 <0>         0.1499
     47 H15        -6.3741   12.0701    3.6531 H         1 <0>         0.1501
     48 H16        -7.9548   10.0022    3.3507 H         1 <0>         0.2046
     49 H17        -5.9906    6.8374   -0.1871 H         1 <0>         0.1229
     50 H18        -8.0734    8.1212   -0.4547 H         1 <0>         0.1326
     51 H19        -8.7056    8.9980   -2.6658 H         1 <0>         0.1296
     52 H20        -7.2536    8.6013   -4.6130 H         1 <0>         0.1315
     53 H21        -5.1637    7.3277   -4.3534 H         1 <0>         0.1255
@<TRIPOS>BOND
     1    1    2 1
     2    1   34 1
     3    1   35 1
     4    1   36 1
     5    2    7 ar
     6    2    3 ar
     7    3    4 ar
     8    3   37 1
     9    4    5 ar
    10    4   38 1
    11    5    6 ar
    12    5    8 1
    13    6    7 ar
    14    6   39 1
    15    7   40 1
    16    8    9 1
    17    8   41 1
    18    8   42 1
    19    9   10 1
    20    9   27 1
    21    9   11 1
    22   11   12 2
    23   11   13 am
    24   13   14 1
    25   13   28 1
    26   14   15 2
    27   14   27 1
    28   15   16 1
    29   15   18 1
    30   16   17 3
    31   18   19 2
    32   18   20 am
    33   20   21 1
    34   20   43 1
    35   21   22 1
    36   21   44 1
    37   21   45 1
    38   22   26 1
    39   22   23 2
    40   23   24 1
    41   23   46 1
    42   24   25 2
    43   24   47 1
    44   25   26 1
    45   25   48 1
    46   28   33 ar
    47   28   29 ar
    48   29   30 ar
    49   29   49 1
    50   30   31 ar
    51   30   50 1
    52   31   32 ar
    53   31   51 1
    54   32   33 ar
    55   32   52 1
    56   33   53 1
@<TRIPOS>MOLECULE
ZINC34979492
   68    71     0     0     0
SMALL
USER_CHARGES

@<TRIPOS>ATOM
      1 C1          0.8630    0.0368   -3.8620 C.3       1 <0>        -0.1836
      2 C2          0.2360    0.6143   -2.5915 C.3       1 <0>        -0.1185
      3 C3          0.5568   -0.2968   -1.4049 C.3       1 <0>        -0.1089
      4 H1          0.3185   -1.3284   -1.6641 H         1 <0>         0.0910
      5 C4         -0.2758    0.1302   -0.1944 C.3       1 <0>        -0.1423
      6 C5          2.0445   -0.1869   -1.0651 C.3       1 <0>         0.1301
      7 H2          2.2494   -0.7387   -0.1477 H         1 <0>         0.1192
      8 C6          2.8612   -0.7649   -2.1920 C.2       1 <0>         0.5271
      9 O1          3.5725   -0.0427   -2.8579 O.2       1 <0>        -0.5292
     10 N1          2.8012   -2.0844   -2.4599 N.am      1 <0>        -0.6042
     11 C7          1.8582   -2.9517   -1.7399 C.3       1 <0>         0.0814
     12 C8          2.6431   -4.1018   -1.0970 C.3       1 <0>         0.0802
     13 N2          3.5191   -4.6991   -2.1147 N.am      1 <0>        -0.6018
     14 C9          4.4621   -3.8318   -2.8347 C.3       1 <0>         0.1247
     15 H3          4.9693   -4.4067   -3.6096 H         1 <0>         0.1144
     16 C10         3.6733   -2.6806   -3.4815 C.3       1 <0>         0.1048
     17 C11         5.4936   -3.2695   -1.8545 C.3       1 <0>        -0.1573
     18 C12         3.4591   -6.0186   -2.3826 C.2       1 <0>         0.5681
     19 O2          4.2452   -6.5164   -3.1654 O.2       1 <0>        -0.5230
     20 C13         2.4402   -6.8585   -1.7263 C.ar      1 <0>        -0.1175
     21 C14         2.3411   -6.8891   -0.3430 C.ar      1 <0>        -0.0815
     22 C15         1.3833   -7.6782    0.2810 C.ar      1 <0>        -0.1243
     23 C16         0.5173   -8.4418   -0.4431 C.ar      1 <0>        -0.0792
     24 C17         0.5813   -8.4419   -1.8472 C.ar      1 <0>        -0.0547
     25 C18         1.5470   -7.6394   -2.5019 C.ar      1 <0>        -0.0157
     26 C19         1.6066   -7.6365   -3.9021 C.ar      1 <0>        -0.1054
     27 C20         0.7325   -8.3997   -4.6163 C.ar      1 <0>        -0.1071
     28 C21        -0.2223   -9.1852   -3.9745 C.ar      1 <0>        -0.1126
     29 C22        -0.3004   -9.2217   -2.6158 C.ar      1 <0>        -0.1045
     30 N3          2.3997    1.2219   -0.8772 N.am      1 <0>        -0.7062
     31 C23         2.3348    1.7754    0.3500 C.2       1 <0>         0.5665
     32 O3          2.0709    1.0849    1.3149 O.2       1 <0>        -0.5316
     33 C24         2.5845    3.2223    0.5225 C.ar      1 <0>        -0.1381
     34 C25         2.8821    4.0191   -0.5842 C.ar      1 <0>        -0.0846
     35 C26         3.1137    5.3687   -0.4165 C.ar      1 <0>        -0.1268
     36 C27         3.0518    5.9327    0.8455 C.ar      1 <0>        -0.0911
     37 C28         2.7578    5.1484    1.9467 C.ar      1 <0>        -0.1279
     38 C29         2.5180    3.7987    1.7919 C.ar      1 <0>        -0.0581
     39 H4          1.9453    0.1595   -3.8213 H         1 <0>         0.0805
     40 H5          0.6201   -1.0231   -3.9376 H         1 <0>         0.0508
     41 H6          0.4702    0.5625   -4.7323 H         1 <0>         0.0547
     42 H7          0.6416    1.6089   -2.4059 H         1 <0>         0.0654
     43 H8         -0.8447    0.6802   -2.7172 H         1 <0>         0.0670
     44 H9         -1.3324   -0.0383   -0.4024 H         1 <0>         0.0589
     45 H10         0.0211   -0.4555    0.6756 H         1 <0>         0.0644
     46 H11        -0.1092    1.1886    0.0061 H         1 <0>         0.0559
     47 H12         1.3510   -2.3768   -0.9650 H         1 <0>         0.1076
     48 H13         1.1252   -3.3547   -2.4387 H         1 <0>         0.0834
     49 H14         3.2466   -3.7180   -0.2744 H         1 <0>         0.0812
     50 H15         1.9489   -4.8550   -0.7243 H         1 <0>         0.1084
     51 H16         3.0666   -3.0648   -4.3015 H         1 <0>         0.0768
     52 H17         4.3652   -1.9268   -3.8572 H         1 <0>         0.1090
     53 H18         6.0393   -4.0910   -1.3903 H         1 <0>         0.0627
     54 H19         6.1917   -2.6267   -2.3908 H         1 <0>         0.0721
     55 H20         4.9847   -2.6901   -1.0842 H         1 <0>         0.0573
     56 H21         3.0154   -6.2937    0.2546 H         1 <0>         0.1304
     57 H22         1.3242   -7.6872    1.3594 H         1 <0>         0.1326
     58 H23        -0.2193   -9.0482    0.0629 H         1 <0>         0.1331
     59 H24         2.3416   -7.0319   -4.4126 H         1 <0>         0.1304
     60 H25         0.7804   -8.3953   -5.6952 H         1 <0>         0.1260
     61 H26        -0.9041   -9.7811   -4.5630 H         1 <0>         0.1266
     62 H27        -1.0451   -9.8358   -2.1313 H         1 <0>         0.1311
     63 H28         2.6817    1.7564   -1.6360 H         1 <0>         0.4098
     64 H29         2.9314    3.5799   -1.5697 H         1 <0>         0.1257
     65 H30         3.3441    5.9863   -1.2719 H         1 <0>         0.1301
     66 H31         3.2343    6.9897    0.9715 H         1 <0>         0.1286
     67 H32         2.7114    5.5947    2.9291 H         1 <0>         0.1312
     68 H33         2.2838    3.1885    2.6517 H         1 <0>         0.1367
@<TRIPOS>BOND
     1    1    2 1
     2    1   39 1
     3    1   40 1
     4    1   41 1
     5    2    3 1
     6    2   42 1
     7    2   43 1
     8    3    4 1
     9    3    5 1
    10    3    6 1
    11    5   44 1
    12    5   45 1
    13    5   46 1
    14    6    7 1
    15    6    8 1
    16    6   30 1
    17    8    9 2
    18    8   10 am
    19   10   16 1
    20   10   11 1
    21   11   12 1
    22   11   47 1
    23   11   48 1
    24   12   13 1
    25   12   49 1
    26   12   50 1
    27   13   14 1
    28   13   18 am
    29   14   15 1
    30   14   16 1
    31   14   17 1
    32   16   51 1
    33   16   52 1
    34   17   53 1
    35   17   54 1
    36   17   55 1
    37   18   19 2
    38   18   20 1
    39   20   25 ar
    40   20   21 ar
    41   21   22 ar
    42   21   56 1
    43   22   23 ar
    44   22   57 1
    45   23   24 ar
    46   23   58 1
    47   24   29 ar
    48   24   25 ar
    49   25   26 ar
    50   26   27 ar
    51   26   59 1
    52   27   28 ar
    53   27   60 1
    54   28   29 ar
    55   28   61 1
    56   29   62 1
    57   30   31 am
    58   30   63 1
    59   31   32 2
    60   31   33 1
    61   33   38 ar
    62   33   34 ar
    63   34   35 ar
    64   34   64 1
    65   35   36 ar
    66   35   65 1
    67   36   37 ar
    68   36   66 1
    69   37   38 ar
    70   37   67 1
    71   38   68 1
@<TRIPOS>MOLECULE
ZINC51353937
   42    44     0     0     0
SMALL
USER_CHARGES

@<TRIPOS>ATOM
      1 C1         -0.0187    1.5258    0.0104 C.3       1 <0>        -0.1599
      2 C2          0.0021   -0.0041    0.0020 C.3       1 <0>         0.1510
      3 H1          0.5118   -0.3583   -0.8940 H         1 <0>         0.0818
      4 C3         -1.4343   -0.5385    0.0224 C.3       1 <0>        -0.1563
      5 C4         -1.4229   -2.0693   -0.0555 C.3       1 <0>         0.1274
      6 H2         -1.0989   -2.3820   -1.0481 H         1 <0>         0.1364
      7 N1         -0.4924   -2.5885    0.9509 N.pl3     1 <0>        -0.3928
      8 C5          0.4927   -1.8397    1.5302 C.2       1 <0>         0.3671
      9 C6          1.1549   -2.6217    2.4052 C.2       1 <0>        -0.2633
     10 C7          0.5607   -3.9039    2.3666 C.2       1 <0>         0.0755
     11 N2         -0.4276   -3.8730    1.4892 N.2       1 <0>        -0.2158
     12 C8          0.9727   -5.0740    3.1664 C.2       1 <0>         0.5576
     13 O1          1.9014   -4.9815    3.9442 O.2       1 <0>        -0.4844
     14 O2          0.3190   -6.2446    3.0338 O.3       1 <0>        -0.3170
     15 C9          0.7713   -7.3350    3.8390 C.3       1 <0>         0.0190
     16 C10        -0.0726   -8.5514    3.5573 C.2       1 <0>         0.3959
     17 O3         -0.9726   -8.4904    2.7469 O.2       1 <0>        -0.4128
     18 C11         0.1955   -9.8127    4.2653 C.ar      1 <0>        -0.1503
     19 C12         1.2292   -9.8852    5.2050 C.ar      1 <0>        -0.0691
     20 C13         1.4742  -11.0702    5.8649 C.ar      1 <0>        -0.1009
     21 C14         0.7000  -12.1878    5.5991 C.ar      1 <0>        -0.0609
     22 C15        -0.3254  -12.1236    4.6698 C.ar      1 <0>        -0.1007
     23 C16        -0.5858  -10.9438    4.0064 C.ar      1 <0>        -0.0503
     24 Br1         1.0450  -13.8093    6.5088 Br        1 <0>        -0.0362
     25 N3          0.7075   -0.4969    1.2014 N.pl3     1 <0>        -0.7269
     26 C17        -2.8291   -2.6068    0.2175 C.3       1 <0>         0.4544
     27 F1         -3.7160   -2.0990   -0.7378 F         1 <0>        -0.1721
     28 F2         -2.8164   -4.0039    0.1460 F         1 <0>        -0.1573
     29 F3         -3.2408   -2.2089    1.4940 F         1 <0>        -0.1729
     30 H3          1.0039    1.9031    0.0027 H         1 <0>         0.0723
     31 H4         -0.5459    1.8868   -0.8726 H         1 <0>         0.0810
     32 H5         -0.5289    1.8773    0.9072 H         1 <0>         0.0692
     33 H6         -1.9235   -0.2265    0.9451 H         1 <0>         0.0990
     34 H7         -1.9821   -0.1367   -0.8300 H         1 <0>         0.1217
     35 H8          1.9884   -2.3231    3.0237 H         1 <0>         0.1669
     36 H9          1.8130   -7.5530    3.6034 H         1 <0>         0.1102
     37 H10         0.6850   -7.0691    4.8925 H         1 <0>         0.1100
     38 H11         1.8340   -9.0149    5.4128 H         1 <0>         0.1438
     39 H12         2.2719  -11.1277    6.5907 H         1 <0>         0.1434
     40 H13        -0.9246  -12.9990    4.4675 H         1 <0>         0.1432
     41 H14        -1.3884  -10.8940    3.2854 H         1 <0>         0.1468
     42 H15         1.2829    0.0770    1.7310 H         1 <0>         0.4261
@<TRIPOS>BOND
     1    1    2 1
     2    1   30 1
     3    1   31 1
     4    1   32 1
     5    2    3 1
     6    2   25 1
     7    2    4 1
     8    4    5 1
     9    4   33 1
    10    4   34 1
    11    5    6 1
    12    5    7 1
    13    5   26 1
    14    7   11 1
    15    7    8 1
    16    8    9 2
    17    8   25 1
    18    9   10 1
    19    9   35 1
    20   10   11 2
    21   10   12 1
    22   12   13 2
    23   12   14 1
    24   14   15 1
    25   15   16 1
    26   15   36 1
    27   15   37 1
    28   16   17 2
    29   16   18 1
    30   18   23 ar
    31   18   19 ar
    32   19   20 ar
    33   19   38 1
    34   20   21 ar
    35   20   39 1
    36   21   22 ar
    37   21   24 1
    38   22   23 ar
    39   22   40 1
    40   23   41 1
    41   25   42 1
    42   26   27 1
    43   26   28 1
    44   26   29 1
@<TRIPOS>MOLECULE
ZINC09286981
   54    57     0     0     0
SMALL
USER_CHARGES
2-[6-(3,4-dihydro-2H-quinolin-1-ylmethyl)-4-oxo-pyran-3-yl]oxy-N-[3-(trifluoromethyl)phenyl]-acetamide
@<TRIPOS>ATOM
      1 C1          3.0042   18.2479   -0.2075 C.ar      1 <0>        -0.1429
      2 C2          3.6100   17.4589    0.7536 C.ar      1 <0>        -0.0938
      3 C3          3.5945   16.0867    0.6272 C.ar      1 <0>        -0.1606
      4 C4          2.9696   15.4846   -0.4666 C.ar      1 <0>         0.1223
      5 C5          2.3609   16.2784   -1.4226 C.ar      1 <0>        -0.1172
      6 C6          2.3829   17.6581   -1.2901 C.ar      1 <0>        -0.0921
      7 C7          1.6603   15.6907   -2.6217 C.3       1 <0>        -0.0806
      8 C8          2.0692   14.2254   -2.7896 C.3       1 <0>        -0.1224
      9 C9          1.9590   13.5449   -1.4194 C.3       1 <0>         0.0531
     10 N1          2.9935   14.0926   -0.5397 N.pl3     1 <0>        -0.4858
     11 C10         2.9169   13.4937    0.7995 C.3       1 <0>         0.1045
     12 C11         2.8307   11.9944    0.6750 C.2       1 <0>         0.1325
     13 C12         3.9639   11.2638    0.6557 C.2       1 <0>        -0.2722
     14 C13         3.8713    9.8544    0.5379 C.2       1 <0>         0.4068
     15 O1          4.8755    9.1589    0.5164 O.2       1 <0>        -0.4527
     16 C14         2.5769    9.2724    0.4448 C.2       1 <0>        -0.0411
     17 C15         1.4947   10.0811    0.4666 C.2       1 <0>        -0.0163
     18 O2          1.6312   11.4090    0.5850 O.3       1 <0>        -0.2010
     19 O3          2.4310    7.9243    0.3300 O.3       1 <0>        -0.2541
     20 C16         1.0964    7.4213    0.2419 C.3       1 <0>         0.0294
     21 C17         1.1324    5.9196    0.1212 C.2       1 <0>         0.5174
     22 O4          2.1964    5.3373    0.1115 O.2       1 <0>        -0.4810
     23 N2         -0.0176    5.2235    0.0239 N.am      1 <0>        -0.6698
     24 C18         0.0096    3.8245    0.0201 C.ar      1 <0>         0.1469
     25 C19         0.9732    3.1451    0.7541 C.ar      1 <0>        -0.0891
     26 C20         0.9970    1.7645    0.7486 C.ar      1 <0>        -0.0964
     27 C21         0.0629    1.0582    0.0128 C.ar      1 <0>        -0.0839
     28 C22        -0.8944    1.7316   -0.7232 C.ar      1 <0>        -0.1629
     29 C23        -0.9271    3.1126   -0.7173 C.ar      1 <0>        -0.0950
     30 C24        -1.9067    0.9581   -1.5281 C.3       1 <0>         0.5102
     31 F1         -1.6767   -0.4131   -1.3729 F         1 <0>        -0.1742
     32 F2         -3.1949    1.2686   -1.0794 F         1 <0>        -0.1757
     33 F3         -1.7884    1.3008   -2.8793 F         1 <0>        -0.1750
     34 H1          3.0175   19.3235   -0.1113 H         1 <0>         0.1230
     35 H2          4.0946   17.9179    1.6026 H         1 <0>         0.1249
     36 H3          4.0682   15.4732    1.3792 H         1 <0>         0.1263
     37 H4          1.9102   18.2761   -2.0390 H         1 <0>         0.1236
     38 H5          0.5816   15.7522   -2.4779 H         1 <0>         0.0759
     39 H6          1.9392   16.2498   -3.5149 H         1 <0>         0.0802
     40 H7          1.4024   13.7356   -3.4993 H         1 <0>         0.0804
     41 H8          3.0969   14.1681   -3.1482 H         1 <0>         0.0790
     42 H9          2.1056   12.4707   -1.5317 H         1 <0>         0.0820
     43 H10         0.9751   13.7395   -0.9924 H         1 <0>         0.0541
     44 H11         2.0317   13.8671    1.3144 H         1 <0>         0.0785
     45 H12         3.8077   13.7605    1.3682 H         1 <0>         0.1265
     46 H13         4.9277   11.7454    0.7293 H         1 <0>         0.1698
     47 H14         0.5067    9.6513    0.3921 H         1 <0>         0.1988
     48 H15         0.6057    7.8446   -0.6345 H         1 <0>         0.1011
     49 H16         0.5429    7.7005    1.1385 H         1 <0>         0.1026
     50 H17        -0.8641    5.6924   -0.0434 H         1 <0>         0.4159
     51 H18         1.7034    3.6961    1.3284 H         1 <0>         0.1455
     52 H19         1.7461    1.2356    1.3192 H         1 <0>         0.1426
     53 H20         0.0841   -0.0216    0.0095 H         1 <0>         0.1428
     54 H21        -1.6777    3.6380   -1.2891 H         1 <0>         0.1388
@<TRIPOS>BOND
     1    1    6 ar
     2    1    2 ar
     3    1   34 1
     4    2    3 ar
     5    2   35 1
     6    3    4 ar
     7    3   36 1
     8    4   10 1
     9    4    5 ar
    10    5    6 ar
    11    5    7 1
    12    6   37 1
    13    7    8 1
    14    7   38 1
    15    7   39 1
    16    8    9 1
    17    8   40 1
    18    8   41 1
    19    9   10 1
    20    9   42 1
    21    9   43 1
    22   10   11 1
    23   11   12 1
    24   11   44 1
    25   11   45 1
    26   12   18 1
    27   12   13 2
    28   13   14 1
    29   13   46 1
    30   14   15 2
    31   14   16 1
    32   16   17 2
    33   16   19 1
    34   17   18 1
    35   17   47 1
    36   19   20 1
    37   20   21 1
    38   20   48 1
    39   20   49 1
    40   21   22 2
    41   21   23 am
    42   23   24 1
    43   23   50 1
    44   24   29 ar
    45   24   25 ar
    46   25   26 ar
    47   25   51 1
    48   26   27 ar
    49   26   52 1
    50   27   28 ar
    51   27   53 1
    52   28   29 ar
    53   28   30 1
    54   29   54 1
    55   30   31 1
    56   30   32 1
    57   30   33 1
@<TRIPOS>MOLECULE
ZINC09612081
   60    64     0     0     0
SMALL
USER_CHARGES
(3R)-2-benzyl-3-[[4-(1-piperidylsulfonyl)phenyl]amino]isoindolin-1-one
@<TRIPOS>ATOM
      1 C1         -3.1101   -3.3447   -6.1500 C.ar      1 <0>        -0.1111
      2 C2         -3.0516   -2.7806   -7.4107 C.ar      1 <0>        -0.1202
      3 C3         -2.7557   -1.4379   -7.5539 C.ar      1 <0>        -0.0949
      4 C4         -2.5189   -0.6592   -6.4366 C.ar      1 <0>        -0.1159
      5 C5         -2.5722   -1.2246   -5.1762 C.ar      1 <0>        -0.1087
      6 C6         -2.8723   -2.5663   -5.0327 C.ar      1 <0>        -0.1215
      7 C7         -2.1964    0.8045   -6.5928 C.3       1 <0>         0.1774
      8 N1         -3.4373    1.5830   -6.5702 N.am      1 <0>        -0.6146
      9 C8         -4.0725    2.1441   -5.3723 C.3       1 <0>         0.3963
     10 H1         -4.3381    1.3451   -4.6801 H         1 <0>         0.1220
     11 C9         -5.3153    2.8546   -5.8472 C.ar      1 <0>        -0.1013
     12 C10        -6.3033    3.5598   -5.1996 C.ar      1 <0>        -0.0830
     13 C11        -7.3470    4.1113   -5.9236 C.ar      1 <0>        -0.0883
     14 C12        -7.3995    3.9553   -7.2976 C.ar      1 <0>        -0.1132
     15 C13        -6.4141    3.2502   -7.9566 C.ar      1 <0>        -0.0475
     16 C14        -5.3585    2.6911   -7.2336 C.ar      1 <0>        -0.1463
     17 C15        -4.1820    1.9005   -7.6432 C.2       1 <0>         0.5635
     18 O1         -3.9230    1.5824   -8.7874 O.2       1 <0>        -0.5097
     19 N2         -3.1675    3.0940   -4.7206 N.pl3     1 <0>        -0.7288
     20 C16        -2.5070    2.7343   -3.5436 C.ar      1 <0>         0.2655
     21 C17        -2.8058    1.5308   -2.9177 C.ar      1 <0>        -0.2200
     22 C18        -2.1506    1.1780   -1.7543 C.ar      1 <0>         0.0299
     23 C19        -1.1980    2.0214   -1.2124 C.ar      1 <0>        -0.7254
     24 C20        -0.9023    3.2228   -1.8298 C.ar      1 <0>         0.0295
     25 C21        -1.5496    3.5792   -2.9966 C.ar      1 <0>        -0.2046
     26 S1         -0.3645    1.5673    0.2721 S.o2      1 <0>         2.6923
     27 O2          0.0876    2.7748    0.8696 O.2       1 <0>        -0.9585
     28 O3         -1.2138    0.6527    0.9513 O.2       1 <0>        -0.9583
     29 N3          0.9893    0.7203   -0.1660 N.pl3     1 <0>        -0.9975
     30 C22         0.9423   -0.7405   -0.3166 C.3       1 <0>         0.1196
     31 C23         1.4766   -1.1054   -1.7100 C.3       1 <0>        -0.1351
     32 C24         2.8705   -0.5000   -1.8901 C.3       1 <0>        -0.1181
     33 C25         2.7827    1.0248   -1.7925 C.3       1 <0>        -0.1355
     34 C26         2.2619    1.4145   -0.4055 C.3       1 <0>         0.1198
     35 H2         -3.3419   -4.3936   -6.0381 H         1 <0>         0.1234
     36 H3         -3.2373   -3.3887   -8.2836 H         1 <0>         0.1238
     37 H4         -2.7100   -0.9971   -8.5388 H         1 <0>         0.1253
     38 H5         -2.3828   -0.6172   -4.3035 H         1 <0>         0.1216
     39 H6         -2.9183   -3.0070   -4.0478 H         1 <0>         0.1244
     40 H7         -1.6844    0.9646   -7.5416 H         1 <0>         0.0950
     41 H8         -1.5521    1.1241   -5.7737 H         1 <0>         0.0903
     42 H9         -6.2652    3.6828   -4.1274 H         1 <0>         0.1331
     43 H10        -8.1223    4.6644   -5.4144 H         1 <0>         0.1376
     44 H11        -8.2159    4.3882   -7.8567 H         1 <0>         0.1376
     45 H12        -6.4586    3.1311   -9.0291 H         1 <0>         0.1360
     46 H13        -3.0269    3.9728   -5.1065 H         1 <0>         0.4082
     47 H14        -3.5494    0.8715   -3.3406 H         1 <0>         0.1309
     48 H15        -2.3827    0.2425   -1.2670 H         1 <0>         0.1390
     49 H16        -0.1612    3.8814   -1.4014 H         1 <0>         0.1394
     50 H17        -1.3150    4.5157   -3.4807 H         1 <0>         0.1322
     51 H18         1.5621   -1.2070    0.4491 H         1 <0>         0.0757
     52 H19        -0.0869   -1.0852   -0.2166 H         1 <0>         0.0900
     53 H20         0.8069   -0.7106   -2.4740 H         1 <0>         0.0672
     54 H21         1.5360   -2.1898   -1.8035 H         1 <0>         0.0750
     55 H22         3.2641   -0.7792   -2.8675 H         1 <0>         0.0644
     56 H23         3.5333   -0.8762   -1.1109 H         1 <0>         0.0652
     57 H24         2.1008    1.3996   -2.5557 H         1 <0>         0.0668
     58 H25         3.7718    1.4571   -1.9443 H         1 <0>         0.0753
     59 H26         2.1036    2.4922   -0.3641 H         1 <0>         0.0897
     60 H27         2.9863    1.1221    0.3546 H         1 <0>         0.0755
@<TRIPOS>BOND
     1    1    6 ar
     2    1    2 ar
     3    1   35 1
     4    2    3 ar
     5    2   36 1
     6    3    4 ar
     7    3   37 1
     8    4    5 ar
     9    4    7 1
    10    5    6 ar
    11    5   38 1
    12    6   39 1
    13    7    8 1
    14    7   40 1
    15    7   41 1
    16    8   17 am
    17    8    9 1
    18    9   10 1
    19    9   11 1
    20    9   19 1
    21   11   16 ar
    22   11   12 ar
    23   12   13 ar
    24   12   42 1
    25   13   14 ar
    26   13   43 1
    27   14   15 ar
    28   14   44 1
    29   15   16 ar
    30   15   45 1
    31   16   17 1
    32   17   18 2
    33   19   20 1
    34   19   46 1
    35   20   25 ar
    36   20   21 ar
    37   21   22 ar
    38   21   47 1
    39   22   23 ar
    40   22   48 1
    41   23   24 ar
    42   23   26 1
    43   24   25 ar
    44   24   49 1
    45   25   50 1
    46   26   27 2
    47   26   28 2
    48   26   29 1
    49   29   34 1
    50   29   30 1
    51   30   31 1
    52   30   51 1
    53   30   52 1
    54   31   32 1
    55   31   53 1
    56   31   54 1
    57   32   33 1
    58   32   55 1
    59   32   56 1
    60   33   34 1
    61   33   57 1
    62   33   58 1
    63   34   59 1
    64   34   60 1
@<TRIPOS>MOLECULE
ZINC20117207
   62    65     0     0     0
SMALL
USER_CHARGES
(3S,4S)-N-(3-fluoro-4-methyl-phenyl)-6,7-dimethoxy-2-methyl-3-(4-methylsulfanylphenyl)-1-oxo-3,4-dihydroisoquinoline-4-carboxamide
@<TRIPOS>ATOM
      1 C1         -4.4998    2.6903    6.3570 C.3       1 <0>        -0.1151
      2 C2         -3.8347    2.3001    5.0622 C.ar      1 <0>        -0.1316
      3 C3         -2.9107    3.1469    4.4784 C.ar      1 <0>        -0.0726
      4 C4         -2.2997    2.7926    3.2916 C.ar      1 <0>        -0.1268
      5 C5         -2.6131    1.5838    2.6834 C.ar      1 <0>         0.1723
      6 C6         -3.5444    0.7364    3.2677 C.ar      1 <0>        -0.1781
      7 C7         -4.1505    1.0941    4.4589 C.ar      1 <0>         0.1155
      8 F1         -5.0543    0.2690    5.0312 F         1 <0>        -0.1344
      9 N1         -1.9953    1.2234    1.4807 N.am      1 <0>        -0.6804
     10 C8         -0.7124    1.5677    1.2526 C.2       1 <0>         0.5283
     11 O1         -0.1191    2.2607    2.0518 O.2       1 <0>        -0.5012
     12 C9         -0.0150    1.0915    0.0044 C.3       1 <0>        -0.0726
     13 H1         -0.0108   -0.0083   -0.0182 H         1 <0>         0.1342
     14 C10        -0.7579    1.5982   -1.2039 C.ar      1 <0>        -0.0477
     15 C11        -1.7341    0.8307   -1.7990 C.ar      1 <0>        -0.1790
     16 C12        -2.4262    1.3179   -2.8997 C.ar      1 <0>         0.1362
     17 C13        -2.1412    2.5866   -3.4033 C.ar      1 <0>         0.1009
     18 C14        -1.1588    3.3593   -2.8133 C.ar      1 <0>        -0.1134
     19 C15        -0.4508    2.8604   -1.7205 C.ar      1 <0>        -0.1227
     20 C16         0.6104    3.6574   -1.0744 C.2       1 <0>         0.5614
     21 O2          0.7293    4.8407   -1.3272 O.2       1 <0>        -0.5262
     22 N2          1.4454    3.0616   -0.2018 N.am      1 <0>        -0.5945
     23 C17         1.4195    1.6137   -0.0046 C.3       1 <0>         0.2086
     24 H2          1.8999    1.4198    0.9658 H         1 <0>         0.1200
     25 C18         2.1819    0.9488   -1.1216 C.ar      1 <0>        -0.1136
     26 C19         2.0360    1.4002   -2.4207 C.ar      1 <0>        -0.0791
     27 C20         2.7373    0.7970   -3.4459 C.ar      1 <0>        -0.1308
     28 C21         3.5819   -0.2722   -3.1726 C.ar      1 <0>        -0.0743
     29 C22         3.7217   -0.7268   -1.8667 C.ar      1 <0>        -0.0986
     30 C23         3.0216   -0.1151   -0.8458 C.ar      1 <0>        -0.0829
     31 S1          4.4738   -1.0494   -4.4784 S.3       1 <0>        -0.1149
     32 C24         3.9753   -0.1280   -5.9594 C.3       1 <0>        -0.1481
     33 C25         2.3934    3.8770    0.5614 C.3       1 <0>         0.0942
     34 O3         -2.8294    3.0634   -4.4750 O.3       1 <0>        -0.3002
     35 C26        -2.4848    4.3707   -4.9380 C.3       1 <0>         0.0183
     36 O4         -3.3844    0.5562   -3.4877 O.3       1 <0>        -0.2964
     37 C27        -3.6262   -0.7334   -2.9216 C.3       1 <0>         0.0176
     38 H3         -4.1251    3.6727    6.6801 H         1 <0>         0.0727
     39 H4         -4.2713    1.9392    7.1275 H         1 <0>         0.0727
     40 H5         -5.5884    2.7438    6.2084 H         1 <0>         0.0727
     41 H6         -2.6667    4.0869    4.9509 H         1 <0>         0.1366
     42 H7         -1.5781    3.4551    2.8368 H         1 <0>         0.1444
     43 H8         -3.7930   -0.2023    2.7950 H         1 <0>         0.1381
     44 H9         -2.5567    0.6591    0.7215 H         1 <0>         0.4334
     45 H10        -1.9612   -0.1509   -1.4099 H         1 <0>         0.1459
     46 H11        -0.9407    4.3451   -3.1967 H         1 <0>         0.1525
     47 H12         1.3760    2.2284   -2.6329 H         1 <0>         0.1248
     48 H13         2.6262    1.1529   -4.4595 H         1 <0>         0.1233
     49 H14         4.3775   -1.5573   -1.6506 H         1 <0>         0.1317
     50 H15         3.1300   -0.4675    0.1693 H         1 <0>         0.1324
     51 H16         4.4866   -0.5445   -6.8398 H         1 <0>         0.1126
     52 H17         4.2503    0.9306   -5.8424 H         1 <0>         0.0856
     53 H18         2.8868   -0.2114   -6.0940 H         1 <0>         0.0855
     54 H19         2.9897    3.2272    1.2188 H         1 <0>         0.0791
     55 H20         1.8411    4.6074    1.1709 H         1 <0>         0.0661
     56 H21         3.0612    4.4087   -0.1324 H         1 <0>         0.0637
     57 H22        -3.1128    4.6307   -5.8028 H         1 <0>         0.1076
     58 H23        -1.4260    4.3870   -5.2356 H         1 <0>         0.0589
     59 H24        -2.6503    5.1006   -4.1319 H         1 <0>         0.0603
     60 H25        -4.4201   -1.2402   -3.4897 H         1 <0>         0.1078
     61 H26        -3.9402   -0.6207   -1.8734 H         1 <0>         0.0587
     62 H27        -2.7044   -1.3320   -2.9659 H         1 <0>         0.0607
@<TRIPOS>BOND
     1    1    2 1
     2    1   38 1
     3    1   39 1
     4    1   40 1
     5    2    7 ar
     6    2    3 ar
     7    3    4 ar
     8    3   41 1
     9    4    5 ar
    10    4   42 1
    11    5    6 ar
    12    5    9 1
    13    6    7 ar
    14    6   43 1
    15    7    8 1
    16    9   10 am
    17    9   44 1
    18   10   11 2
    19   10   12 1
    20   12   13 1
    21   12   23 1
    22   12   14 1
    23   14   19 ar
    24   14   15 ar
    25   15   16 ar
    26   15   45 1
    27   16   17 ar
    28   16   36 1
    29   17   18 ar
    30   17   34 1
    31   18   19 ar
    32   18   46 1
    33   19   20 1
    34   20   21 2
    35   20   22 am
    36   22   23 1
    37   22   33 1
    38   23   24 1
    39   23   25 1
    40   25   30 ar
    41   25   26 ar
    42   26   27 ar
    43   26   47 1
    44   27   28 ar
    45   27   48 1
    46   28   29 ar
    47   28   31 1
    48   29   30 ar
    49   29   49 1
    50   30   50 1
    51   31   32 1
    52   32   51 1
    53   32   52 1
    54   32   53 1
    55   33   54 1
    56   33   55 1
    57   33   56 1
    58   34   35 1
    59   35   57 1
    60   35   58 1
    61   35   59 1
    62   36   37 1
    63   37   60 1
    64   37   61 1
    65   37   62 1
@<TRIPOS>MOLECULE
ZINC35613657
   57    59     0     0     0
SMALL
USER_CHARGES

@<TRIPOS>ATOM
      1 C1          3.2141    1.2432   -4.0103 C.3       1 <0>        -0.1502
      2 C2          3.1463   -0.2820   -4.1104 C.3       1 <0>        -0.1357
      3 C3          2.4443   -0.8437   -2.8724 C.3       1 <0>         0.1352
      4 N1          2.3793   -2.3041   -2.9683 N.am      1 <0>        -0.7481
      5 C4          1.7998   -3.0190   -1.9837 C.2       1 <0>         0.7078
      6 O1          1.4128   -2.4617   -0.9747 O.2       1 <0>        -0.5868
      7 N2          1.6491   -4.3516   -2.1175 N.am      1 <0>        -0.6316
      8 C5          0.9179   -5.1336   -1.1090 C.3       1 <0>         0.1352
      9 C6         -0.1359   -5.9860   -1.8241 C.3       1 <0>         0.0433
     10 N3          0.5129   -6.7804   -2.8757 N.3       1 <0>        -0.5309
     11 C7          1.1068   -5.9175   -3.9056 C.3       1 <0>         0.0368
     12 C8          2.2062   -5.0614   -3.2789 C.3       1 <0>         0.1173
     13 C9         -0.4303   -7.7370   -3.4703 C.3       1 <0>         0.0437
     14 C10         0.3307   -8.7082   -4.3750 C.3       1 <0>         0.1171
     15 N4         -0.6208   -9.5943   -5.0500 N.am      1 <0>        -0.6049
     16 C11        -1.2710   -9.1731   -6.3053 C.3       1 <0>         0.2284
     17 H1         -2.0712   -8.4588   -6.1114 H         1 <0>         0.1213
     18 S1         -1.9476  -10.7761   -6.9177 S.3       1 <0>        -0.2370
     19 C12        -1.8981  -11.6552   -5.2961 C.3       1 <0>        -0.0611
     20 H2         -1.5229  -12.6722   -5.4101 H         1 <0>         0.1461
     21 C13        -0.9034  -10.7869   -4.5422 C.2       1 <0>         0.5172
     22 O2         -0.3898  -11.1692   -3.5121 O.2       1 <0>        -0.5027
     23 C14        -3.2708  -11.6482   -4.6205 C.3       1 <0>        -0.1311
     24 C15        -0.2645   -8.6046   -7.2722 C.ar      1 <0>        -0.0873
     25 C16         0.8366   -9.3538   -7.6434 C.ar      1 <0>        -0.0625
     26 C17         1.7606   -8.8334   -8.5296 C.ar      1 <0>        -0.0974
     27 C18         1.5838   -7.5623   -9.0463 C.ar      1 <0>        -0.0164
     28 C19         0.4810   -6.8123   -8.6750 C.ar      1 <0>        -0.0338
     29 C20        -0.4457   -7.3368   -7.7917 C.ar      1 <0>        -0.0729
     30 Cl1         0.2580   -5.2168   -9.3219 Cl        1 <0>        -0.0380
     31 Cl2         2.7445   -6.9079  -10.1591 Cl        1 <0>        -0.0374
     32 H3          2.2041    1.6487   -3.9500 H         1 <0>         0.0584
     33 H4          3.7723    1.5242   -3.1172 H         1 <0>         0.0590
     34 H5          3.7142    1.6434   -4.8923 H         1 <0>         0.0610
     35 H6          2.5880   -0.5630   -5.0035 H         1 <0>         0.0676
     36 H7          4.1562   -0.6874   -4.1707 H         1 <0>         0.0686
     37 H8          3.0025   -0.5627   -1.9794 H         1 <0>         0.0678
     38 H9          1.4343   -0.4382   -2.8121 H         1 <0>         0.0653
     39 H10         2.7535   -2.7565   -3.7405 H         1 <0>         0.3946
     40 H11         1.6122   -5.7821   -0.5745 H         1 <0>         0.0759
     41 H12         0.4282   -4.4589   -0.4068 H         1 <0>         0.0987
     42 H13        -0.6124   -6.6532   -1.1059 H         1 <0>         0.0913
     43 H14        -0.8876   -5.3354   -2.2711 H         1 <0>         0.0406
     44 H15         1.5315   -6.5351   -4.6970 H         1 <0>         0.0882
     45 H16         0.3378   -5.2679   -4.3236 H         1 <0>         0.0415
     46 H17         2.5679   -4.3390   -4.0107 H         1 <0>         0.0798
     47 H18         3.0267   -5.7028   -2.9570 H         1 <0>         0.0803
     48 H19        -0.9302   -8.2943   -2.6781 H         1 <0>         0.0837
     49 H20        -1.1722   -7.1975   -4.0590 H         1 <0>         0.0371
     50 H21         0.8943   -8.1456   -5.1194 H         1 <0>         0.0840
     51 H22         1.0174   -9.3033   -3.7730 H         1 <0>         0.1046
     52 H23        -3.9895  -12.1697   -5.2526 H         1 <0>         0.0830
     53 H24        -3.2036  -12.1509   -3.6557 H         1 <0>         0.0809
     54 H25        -3.5974  -10.6189   -4.4719 H         1 <0>         0.0657
     55 H26         0.9750  -10.3462   -7.2402 H         1 <0>         0.1429
     56 H27         2.6209   -9.4189   -8.8186 H         1 <0>         0.1496
     57 H28        -1.3083   -6.7538   -7.5047 H         1 <0>         0.1460
@<TRIPOS>BOND
     1    1    2 1
     2    1   32 1
     3    1   33 1
     4    1   34 1
     5    2    3 1
     6    2   35 1
     7    2   36 1
     8    3    4 1
     9    3   37 1
    10    3   38 1
    11    4    5 am
    12    4   39 1
    13    5    6 2
    14    5    7 am
    15    7   12 1
    16    7    8 1
    17    8    9 1
    18    8   40 1
    19    8   41 1
    20    9   10 1
    21    9   42 1
    22    9   43 1
    23   10   11 1
    24   10   13 1
    25   11   12 1
    26   11   44 1
    27   11   45 1
    28   12   46 1
    29   12   47 1
    30   13   14 1
    31   13   48 1
    32   13   49 1
    33   14   15 1
    34   14   50 1
    35   14   51 1
    36   15   21 am
    37   15   16 1
    38   16   17 1
    39   16   18 1
    40   16   24 1
    41   18   19 1
    42   19   20 1
    43   19   21 1
    44   19   23 1
    45   21   22 2
    46   23   52 1
    47   23   53 1
    48   23   54 1
    49   24   29 ar
    50   24   25 ar
    51   25   26 ar
    52   25   55 1
    53   26   27 ar
    54   26   56 1
    55   27   28 ar
    56   27   31 1
    57   28   29 ar
    58   28   30 1
    59   29   57 1
@<TRIPOS>MOLECULE
ZINC31550437
   63    66     0     0     0
SMALL
USER_CHARGES

@<TRIPOS>ATOM
      1 C1          0.9160    1.1426   -0.0242 C.3       1 <0>         0.0663
      2 N1          0.4118   -0.2328   -0.0413 N.am      1 <0>        -0.5992
      3 C2          0.3587   -1.0089    1.2001 C.3       1 <0>         0.0985
      4 C3         -0.9747   -0.7959    1.8691 C.2       1 <0>         0.4989
      5 O1         -1.7996   -0.0674    1.3591 O.2       1 <0>        -0.5033
      6 N2         -1.2507   -1.4149    3.0341 N.am      1 <0>        -0.6658
      7 C4         -2.5267   -1.3019    3.6025 C.ar      1 <0>         0.1717
      8 C5         -3.6222   -1.0183    2.8013 C.ar      1 <0>        -0.1148
      9 C6         -4.8801   -0.9073    3.3640 C.ar      1 <0>        -0.1003
     10 C7         -5.0508   -1.0782    4.7257 C.ar      1 <0>        -0.1192
     11 C8         -3.9650   -1.3610    5.5324 C.ar      1 <0>        -0.1124
     12 C9         -2.6993   -1.4800    4.9754 C.ar      1 <0>        -0.1181
     13 S1         -1.3138   -1.8472    6.0001 S.3       1 <0>        -0.1297
     14 C10        -2.0229   -1.9858    7.6640 C.3       1 <0>        -0.1367
     15 C11        -0.0032   -0.7840   -1.1990 C.2       1 <0>         0.5296
     16 O2         -0.5038   -1.8887   -1.1995 O.2       1 <0>        -0.5266
     17 C12         0.1547   -0.0278   -2.4929 C.3       1 <0>        -0.1183
     18 H1          1.1546    0.4034   -2.5426 H         1 <0>         0.1009
     19 C13        -0.0487   -0.9832   -3.6710 C.3       1 <0>        -0.1013
     20 C14         0.1438   -0.2232   -4.9854 C.3       1 <0>        -0.1341
     21 C15        -0.9003    0.8935   -5.0826 C.3       1 <0>         0.1013
     22 N3         -0.8077    1.7335   -3.8807 N.am      1 <0>        -0.6042
     23 C16        -0.8888    1.0917   -2.5615 C.3       1 <0>         0.1176
     24 C17        -0.6507    3.0680   -3.9860 C.2       1 <0>         0.5683
     25 O3         -0.4798    3.7407   -2.9876 O.2       1 <0>        -0.5261
     26 C18        -0.6861    3.7121   -5.3120 C.ar      1 <0>        -0.1151
     27 C19        -1.8347    3.6576   -6.0879 C.ar      1 <0>        -0.0772
     28 C20        -1.8742    4.2625   -7.3378 C.ar      1 <0>        -0.1223
     29 C21        -0.7918    4.9239   -7.8362 C.ar      1 <0>        -0.0824
     30 C22         0.3932    5.0044   -7.0846 C.ar      1 <0>        -0.0546
     31 C23         0.4511    4.3992   -5.8057 C.ar      1 <0>        -0.0178
     32 C24         1.6316    4.4845   -5.0552 C.ar      1 <0>        -0.1057
     33 C25         2.7060    5.1526   -5.5610 C.ar      1 <0>        -0.1072
     34 C26         2.6492    5.7540   -6.8162 C.ar      1 <0>        -0.1138
     35 C27         1.5230    5.6802   -7.5776 C.ar      1 <0>        -0.1036
     36 H2          2.0035    1.1319   -0.0980 H         1 <0>         0.0635
     37 H3          0.5000    1.6926   -0.8683 H         1 <0>         0.0881
     38 H4          0.6198    1.6267    0.9064 H         1 <0>         0.0751
     39 H5          0.4861   -2.0673    0.9726 H         1 <0>         0.1198
     40 H6          1.1563   -0.6822    1.8673 H         1 <0>         0.1151
     41 H7         -0.5662   -1.9386    3.4791 H         1 <0>         0.4128
     42 H8         -3.4927   -0.8839    1.7375 H         1 <0>         0.1510
     43 H9         -5.7321   -0.6860    2.7382 H         1 <0>         0.1293
     44 H10        -6.0357   -0.9900    5.1601 H         1 <0>         0.1274
     45 H11        -4.1018   -1.4932    6.5955 H         1 <0>         0.1269
     46 H12        -2.4969   -1.0429    7.9366 H         1 <0>         0.0857
     47 H13        -2.7660   -2.7831    7.6769 H         1 <0>         0.0856
     48 H14        -1.2319   -2.2147    8.3781 H         1 <0>         0.1113
     49 H15         0.6773   -1.7939   -3.6106 H         1 <0>         0.0745
     50 H16        -1.0571   -1.3954   -3.6343 H         1 <0>         0.0779
     51 H17         1.1436    0.2102   -5.0119 H         1 <0>         0.0698
     52 H18         0.0219   -0.9093   -5.8235 H         1 <0>         0.0849
     53 H19        -0.7061    1.4993   -5.9677 H         1 <0>         0.0917
     54 H20        -1.8971    0.4571   -5.1475 H         1 <0>         0.0752
     55 H21        -1.8848    0.6719   -2.4205 H         1 <0>         0.0792
     56 H22        -0.6868    1.8277   -1.7834 H         1 <0>         0.1073
     57 H23        -2.7066    3.1395   -5.7168 H         1 <0>         0.1294
     58 H24        -2.7788    4.2073   -7.9252 H         1 <0>         0.1318
     59 H25        -0.8446    5.3866   -8.8106 H         1 <0>         0.1326
     60 H26         1.6893    4.0231   -4.0804 H         1 <0>         0.1276
     61 H27         3.6143    5.2171   -4.9804 H         1 <0>         0.1258
     62 H28         3.5143    6.2781   -7.1949 H         1 <0>         0.1264
     63 H29         1.4931    6.1504   -8.5494 H         1 <0>         0.1308
@<TRIPOS>BOND
     1    1    2 1
     2    1   36 1
     3    1   37 1
     4    1   38 1
     5    2    3 1
     6    2   15 am
     7    3    4 1
     8    3   39 1
     9    3   40 1
    10    4    5 2
    11    4    6 am
    12    6    7 1
    13    6   41 1
    14    7   12 ar
    15    7    8 ar
    16    8    9 ar
    17    8   42 1
    18    9   10 ar
    19    9   43 1
    20   10   11 ar
    21   10   44 1
    22   11   12 ar
    23   11   45 1
    24   12   13 1
    25   13   14 1
    26   14   46 1
    27   14   47 1
    28   14   48 1
    29   15   16 2
    30   15   17 1
    31   17   18 1
    32   17   23 1
    33   17   19 1
    34   19   20 1
    35   19   49 1
    36   19   50 1
    37   20   21 1
    38   20   51 1
    39   20   52 1
    40   21   22 1
    41   21   53 1
    42   21   54 1
    43   22   23 1
    44   22   24 am
    45   23   55 1
    46   23   56 1
    47   24   25 2
    48   24   26 1
    49   26   31 ar
    50   26   27 ar
    51   27   28 ar
    52   27   57 1
    53   28   29 ar
    54   28   58 1
    55   29   30 ar
    56   29   59 1
    57   30   35 ar
    58   30   31 ar
    59   31   32 ar
    60   32   33 ar
    61   32   60 1
    62   33   34 ar
    63   33   61 1
    64   34   35 ar
    65   34   62 1
    66   35   63 1
@<TRIPOS>MOLECULE
ZINC09432785
   52    55     0     0     0
SMALL
USER_CHARGES
N-(2-cyanophenyl)-2-(2-methoxyethyl)-1-oxo-3-(2-thienyl)-3,4-dihydroisoquinoline-4-carboxamide
@<TRIPOS>ATOM
      1 C1         -4.2178    1.3767   -2.2739 C.3       1 <0>         0.0326
      2 O1         -4.0262    2.7353   -1.8744 O.3       1 <0>        -0.3641
      3 C2         -2.7371    3.2602   -2.1985 C.3       1 <0>         0.0416
      4 C3         -2.6447    4.7128   -1.7271 C.3       1 <0>         0.1183
      5 N1         -2.7251    4.7578   -0.2650 N.am      1 <0>        -0.6052
      6 C4         -1.4988    4.6757    0.5253 C.3       1 <0>         0.2495
      7 H1         -0.6482    4.9326   -0.1060 H         1 <0>         0.1174
      8 C5         -1.5482    5.6340    1.7126 C.3       1 <0>        -0.0768
      9 H2         -1.4894    6.6606    1.3510 H         1 <0>         0.1197
     10 C6         -2.8324    5.4464    2.4766 C.ar      1 <0>        -0.0430
     11 C7         -2.8729    5.6363    3.8413 C.ar      1 <0>        -0.1015
     12 C8         -4.0688    5.4946    4.5237 C.ar      1 <0>        -0.0883
     13 C9         -5.2278    5.1618    3.8447 C.ar      1 <0>        -0.1209
     14 C10        -5.1986    4.9613    2.4790 C.ar      1 <0>        -0.0544
     15 C11        -3.9960    5.0974    1.7889 C.ar      1 <0>        -0.1248
     16 C12        -3.9280    4.8746    0.3291 C.2       1 <0>         0.5662
     17 O2         -4.9475    4.7980   -0.3283 O.2       1 <0>        -0.4921
     18 C13        -0.3799    5.3605    2.6243 C.2       1 <0>         0.5275
     19 O3         -0.4462    4.4695    3.4444 O.2       1 <0>        -0.4702
     20 N2          0.7388    6.1061    2.5283 N.am      1 <0>        -0.6688
     21 C14         1.8612    5.7798    3.2879 C.ar      1 <0>         0.2004
     22 C15         2.0017    4.5020    3.8113 C.ar      1 <0>        -0.1415
     23 C16         3.1162    4.1795    4.5597 C.ar      1 <0>        -0.0637
     24 C17         4.0964    5.1280    4.8023 C.ar      1 <0>        -0.1396
     25 C18         3.9714    6.4034    4.2950 C.ar      1 <0>        -0.0470
     26 C19         2.8516    6.7430    3.5318 C.ar      1 <0>        -0.0680
     27 C20         2.7158    8.0662    3.0014 C.1       1 <0>         0.2467
     28 N3          2.6080    9.1159    2.5806 N.1       1 <0>        -0.4084
     29 C21        -1.3306    3.2669    1.0331 C.2       1 <0>        -0.1779
     30 C22        -0.2012    2.5237    1.1303 C.2       1 <0>        -0.1350
     31 C23        -0.2855    1.2386    1.6324 C.2       1 <0>        -0.1571
     32 C24        -1.4951    0.7595    2.0127 C.2       1 <0>        -0.1796
     33 S1         -2.5682    2.1411    1.6562 S.3       1 <0>         0.0975
     34 H3         -4.0998    1.2957   -3.3545 H         1 <0>         0.0377
     35 H4         -3.4797    0.7451   -1.7795 H         1 <0>         0.0363
     36 H5         -5.2198    1.0531   -1.9925 H         1 <0>         0.0845
     37 H6         -2.5885    3.2182   -3.2775 H         1 <0>         0.0573
     38 H7         -1.9684    2.6676   -1.7025 H         1 <0>         0.0496
     39 H8         -3.4674    5.2864   -2.1541 H         1 <0>         0.0989
     40 H9         -1.6964    5.1406   -2.0522 H         1 <0>         0.0955
     41 H10        -1.9722    5.8958    4.3777 H         1 <0>         0.1269
     42 H11        -4.0976    5.6449    5.5928 H         1 <0>         0.1295
     43 H12        -6.1576    5.0591    4.3844 H         1 <0>         0.1325
     44 H13        -6.1027    4.7008    1.9488 H         1 <0>         0.1385
     45 H14         0.7629    6.8697    1.9306 H         1 <0>         0.4130
     46 H15         1.2401    3.7581    3.6298 H         1 <0>         0.1656
     47 H16         3.2227    3.1828    4.9617 H         1 <0>         0.1347
     48 H17         4.9626    4.8668    5.3921 H         1 <0>         0.1354
     49 H18         4.7383    7.1392    4.4869 H         1 <0>         0.1371
     50 H19         0.7503    2.9295    0.8198 H         1 <0>         0.1255
     51 H20         0.5993    0.6256    1.7208 H         1 <0>         0.1304
     52 H21        -1.7455   -0.2085    2.4210 H         1 <0>         0.1819
@<TRIPOS>BOND
     1    1    2 1
     2    1   34 1
     3    1   35 1
     4    1   36 1
     5    2    3 1
     6    3    4 1
     7    3   37 1
     8    3   38 1
     9    4    5 1
    10    4   39 1
    11    4   40 1
    12    5   16 am
    13    5    6 1
    14    6    7 1
    15    6    8 1
    16    6   29 1
    17    8    9 1
    18    8   10 1
    19    8   18 1
    20   10   15 ar
    21   10   11 ar
    22   11   12 ar
    23   11   41 1
    24   12   13 ar
    25   12   42 1
    26   13   14 ar
    27   13   43 1
    28   14   15 ar
    29   14   44 1
    30   15   16 1
    31   16   17 2
    32   18   19 2
    33   18   20 am
    34   20   21 1
    35   20   45 1
    36   21   26 ar
    37   21   22 ar
    38   22   23 ar
    39   22   46 1
    40   23   24 ar
    41   23   47 1
    42   24   25 ar
    43   24   48 1
    44   25   26 ar
    45   25   49 1
    46   26   27 1
    47   27   28 3
    48   29   33 1
    49   29   30 2
    50   30   31 1
    51   30   50 1
    52   31   32 2
    53   31   51 1
    54   32   33 1
    55   32   52 1
@<TRIPOS>MOLECULE
ZINC15731071
   51    54     0     0     0
SMALL
USER_CHARGES
N-[(4-fluorophenyl)methyl]-4-oxo-N-(3-pyridylmethyl)-3,5-dihydro-2H-1,5-benzothiazepine-7-sulfonamide
@<TRIPOS>ATOM
      1 C1          5.6377    4.8963    1.7814 C.ar      1 <0>        -0.1696
      2 C2          4.3933    4.7850    1.1797 C.ar      1 <0>        -0.0703
      3 C3          4.1643    3.7131    0.3310 C.ar      1 <0>        -0.1661
      4 C4          5.1767    2.7973    0.1143 C.ar      1 <0>         0.1192
      5 N1          6.3481    2.9349    0.7037 N.ar      1 <0>        -0.4804
      6 C5          6.6032    3.9450    1.5125 C.ar      1 <0>         0.1083
      7 C6          2.8286    3.5486   -0.3472 C.3       1 <0>         0.1553
      8 N2          2.8750    4.1679   -1.6740 N.pl3     1 <0>        -0.9834
      9 C7          3.4050    3.4169   -2.8148 C.3       1 <0>         0.1633
     10 C8          2.3179    2.5476   -3.3926 C.ar      1 <0>        -0.1292
     11 C9          2.0671    1.3019   -2.8481 C.ar      1 <0>        -0.0729
     12 C10         1.0673    0.5059   -3.3740 C.ar      1 <0>        -0.1579
     13 C11         0.3237    0.9521   -4.4535 C.ar      1 <0>         0.1068
     14 C12         0.5794    2.1977   -5.0014 C.ar      1 <0>        -0.1557
     15 C13         1.5762    2.9942   -4.4704 C.ar      1 <0>        -0.0662
     16 F1         -0.6508    0.1728   -4.9715 F         1 <0>        -0.1380
     17 S1          2.3285    5.7169   -1.8844 S.o2      1 <0>         2.6847
     18 O1          1.8903    5.8134   -3.2327 O.2       1 <0>        -0.9384
     19 O2          1.4751    5.9994   -0.7839 O.2       1 <0>        -0.9459
     20 C14         3.7205    6.7860   -1.7296 C.ar      1 <0>        -0.6406
     21 C15         4.5271    7.0282   -2.8266 C.ar      1 <0>        -0.0294
     22 C16         5.6231    7.8652   -2.7149 C.ar      1 <0>        -0.0678
     23 C17         5.9084    8.4613   -1.4973 C.ar      1 <0>        -0.0793
     24 C18         5.0953    8.2192   -0.3922 C.ar      1 <0>         0.1566
     25 C19         3.9976    7.3832   -0.5127 C.ar      1 <0>        -0.0366
     26 N3          5.3948    8.8348    0.8329 N.am      1 <0>        -0.6690
     27 C20         5.6071   10.1553    0.8908 C.2       1 <0>         0.5325
     28 O3          6.0527   10.6420    1.9086 O.2       1 <0>        -0.5128
     29 C21         5.3040   11.0446   -0.2785 C.3       1 <0>        -0.1539
     30 C22         6.5405   11.1834   -1.1833 C.3       1 <0>        -0.0885
     31 S2          7.3002    9.5308   -1.3243 S.3       1 <0>        -0.1291
     32 H1          5.8510    5.7186    2.4483 H         1 <0>         0.1352
     33 H2          3.6210    5.5163    1.3675 H         1 <0>         0.1341
     34 H3          5.0062    1.9592   -0.5452 H         1 <0>         0.1553
     35 H4          7.5764    4.0272    1.9733 H         1 <0>         0.1571
     36 H5          2.6012    2.4875   -0.4493 H         1 <0>         0.1035
     37 H6          2.0554    4.0299    0.2516 H         1 <0>         0.1095
     38 H7          3.7568    4.1129   -3.5763 H         1 <0>         0.0944
     39 H8          4.2337    2.7907   -2.4842 H         1 <0>         0.0967
     40 H9          2.6499    0.9524   -2.0087 H         1 <0>         0.1329
     41 H10         0.8687   -0.4655   -2.9459 H         1 <0>         0.1371
     42 H11        -0.0002    2.5469   -5.8431 H         1 <0>         0.1381
     43 H12         1.7756    3.9659   -4.8974 H         1 <0>         0.1460
     44 H13         4.3004    6.5625   -3.7743 H         1 <0>         0.1502
     45 H14         6.2525    8.0530   -3.5722 H         1 <0>         0.1524
     46 H15         3.3630    7.1951    0.3406 H         1 <0>         0.1506
     47 H16         5.4484    8.3011    1.6411 H         1 <0>         0.4154
     48 H17         5.0107   12.0296    0.0845 H         1 <0>         0.1212
     49 H18         4.4829   10.6165   -0.8535 H         1 <0>         0.0906
     50 H19         7.2498   11.8806   -0.7373 H         1 <0>         0.1249
     51 H20         6.2404   11.5386   -2.1691 H         1 <0>         0.1091
@<TRIPOS>BOND
     1    1    6 ar
     2    1    2 ar
     3    1   32 1
     4    2    3 ar
     5    2   33 1
     6    3    4 ar
     7    3    7 1
     8    4    5 ar
     9    4   34 1
    10    5    6 ar
    11    6   35 1
    12    7    8 1
    13    7   36 1
    14    7   37 1
    15    8    9 1
    16    8   17 1
    17    9   10 1
    18    9   38 1
    19    9   39 1
    20   10   15 ar
    21   10   11 ar
    22   11   12 ar
    23   11   40 1
    24   12   13 ar
    25   12   41 1
    26   13   14 ar
    27   13   16 1
    28   14   15 ar
    29   14   42 1
    30   15   43 1
    31   17   18 2
    32   17   19 2
    33   17   20 1
    34   20   25 ar
    35   20   21 ar
    36   21   22 ar
    37   21   44 1
    38   22   23 ar
    39   22   45 1
    40   23   31 1
    41   23   24 ar
    42   24   25 ar
    43   24   26 1
    44   25   46 1
    45   26   27 am
    46   26   47 1
    47   27   28 2
    48   27   29 1
    49   29   30 1
    50   29   48 1
    51   29   49 1
    52   30   31 1
    53   30   50 1
    54   30   51 1
@<TRIPOS>MOLECULE
ZINC25115236
   49    51     0     0     0
SMALL
USER_CHARGES
[(1S)-1-methyl-2-oxo-2-[(2,3,4-trifluorophenyl)amino]ethyl] 2-[4-(2-oxopyrrolidin-1-yl)phenyl]acetate
@<TRIPOS>ATOM
      1 C1          4.5862   -0.6775   -1.0781 C.3       1 <0>        -0.1706
      2 C2          3.7477   -0.9700    0.1678 C.3       1 <0>         0.0735
      3 H1          4.2771   -0.6713    1.0846 H         1 <0>         0.1210
      4 C3          2.4323   -0.2410    0.0705 C.2       1 <0>         0.5255
      5 O1          1.3916   -0.8639    0.0802 O.2       1 <0>        -0.4909
      6 N1          2.4124    1.1030   -0.0271 N.am      1 <0>        -0.6754
      7 C4          1.1909    1.7895   -0.0001 C.ar      1 <0>         0.1479
      8 C5          0.0868    1.2193    0.6184 C.ar      1 <0>        -0.0906
      9 C6         -1.1187    1.8940    0.6398 C.ar      1 <0>        -0.1063
     10 C7         -1.2253    3.1439    0.0542 C.ar      1 <0>         0.0791
     11 C8         -0.1253    3.7175   -0.5647 C.ar      1 <0>         0.0587
     12 C9          1.0833    3.0420   -0.5929 C.ar      1 <0>         0.0621
     13 F1          2.1563    3.5998   -1.1952 F         1 <0>        -0.1166
     14 F2         -0.2325    4.9349   -1.1406 F         1 <0>        -0.1118
     15 F3         -2.4041    3.8033    0.0814 F         1 <0>        -0.1176
     16 O2          3.5037   -2.3982    0.2626 O.3       1 <0>        -0.3326
     17 C10         4.4015   -3.1258    0.9454 C.2       1 <0>         0.4640
     18 O3          5.3595   -2.5872    1.4473 O.2       1 <0>        -0.4930
     19 C11         4.2145   -4.6146    1.0861 C.3       1 <0>        -0.0689
     20 C12         5.3513   -5.1898    1.8910 C.ar      1 <0>        -0.1080
     21 C13         6.4948   -5.6321    1.2516 C.ar      1 <0>        -0.0705
     22 C14         7.5404   -6.1553    1.9869 C.ar      1 <0>        -0.1557
     23 C15         7.4382   -6.2463    3.3689 C.ar      1 <0>         0.1719
     24 C16         6.2863   -5.8061    4.0075 C.ar      1 <0>        -0.1572
     25 C17         5.2463   -5.2794    3.2669 C.ar      1 <0>        -0.0722
     26 N2          8.4939   -6.7799    4.1163 N.am      1 <0>        -0.5618
     27 C18         8.4455   -7.0203    5.5633 C.3       1 <0>         0.0884
     28 C19         9.9172   -7.1842    6.0033 C.3       1 <0>        -0.1329
     29 C20        10.5859   -7.6651    4.6946 C.3       1 <0>        -0.1523
     30 C21         9.6806   -7.1437    3.6003 C.2       1 <0>         0.5189
     31 O4          9.9826   -7.0631    2.4284 O.2       1 <0>        -0.5072
     32 H2          5.5463   -1.2096   -1.0071 H         1 <0>         0.0830
     33 H3          4.7710    0.4045   -1.1499 H         1 <0>         0.0837
     34 H4          4.0441   -1.0171   -1.9729 H         1 <0>         0.0793
     35 H5          3.3549    1.6611   -0.1280 H         1 <0>         0.4468
     36 H6          0.1688    0.2459    1.0792 H         1 <0>         0.1719
     37 H7         -1.9781    1.4475    1.1178 H         1 <0>         0.1605
     38 H8          3.2627   -4.8177    1.5987 H         1 <0>         0.1198
     39 H9          4.2000   -5.0782    0.0887 H         1 <0>         0.1197
     40 H10         6.5720   -5.5649    0.1765 H         1 <0>         0.1269
     41 H11         8.4349   -6.4968    1.4873 H         1 <0>         0.1567
     42 H12         6.2040   -5.8751    5.0821 H         1 <0>         0.1272
     43 H13         4.3502   -4.9368    3.7630 H         1 <0>         0.1268
     44 H14         7.9701   -6.1627    6.0618 H         1 <0>         0.0874
     45 H15         7.8621   -7.9309    5.7644 H         1 <0>         0.0824
     46 H16        10.3040   -6.2171    6.3571 H         1 <0>         0.0870
     47 H17         9.9767   -7.9225    6.8165 H         1 <0>         0.0981
     48 H18        11.6003   -7.2453    4.6255 H         1 <0>         0.1107
     49 H19        10.6429   -8.7636    4.6941 H         1 <0>         0.1131
@<TRIPOS>BOND
     1    1    2 1
     2    1   32 1
     3    1   33 1
     4    1   34 1
     5    2    3 1
     6    2    4 1
     7    2   16 1
     8    4    5 2
     9    4    6 am
    10    6    7 1
    11    6   35 1
    12    7   12 ar
    13    7    8 ar
    14    8    9 ar
    15    8   36 1
    16    9   10 ar
    17    9   37 1
    18   10   11 ar
    19   10   15 1
    20   11   12 ar
    21   11   14 1
    22   12   13 1
    23   16   17 1
    24   17   18 2
    25   17   19 1
    26   19   20 1
    27   19   38 1
    28   19   39 1
    29   20   25 ar
    30   20   21 ar
    31   21   22 ar
    32   21   40 1
    33   22   23 ar
    34   22   41 1
    35   23   24 ar
    36   23   26 1
    37   24   25 ar
    38   24   42 1
    39   25   43 1
    40   26   30 am
    41   26   27 1
    42   27   28 1
    43   27   44 1
    44   27   45 1
    45   28   29 1
    46   28   46 1
    47   28   47 1
    48   29   30 1
    49   29   48 1
    50   29   49 1
    51   30   31 2
@<TRIPOS>MOLECULE
ZINC39312315
   55    59     0     0     0
SMALL
USER_CHARGES

@<TRIPOS>ATOM
      1 C1         -0.0173    1.4248    0.0099 C.3       1 <0>         0.0319
      2 O1          0.0021   -0.0041    0.0020 O.3       1 <0>        -0.3196
      3 C2         -1.2013   -0.6380    0.0101 C.ar      1 <0>         0.0572
      4 C3         -2.3740    0.0989    0.0195 C.ar      1 <0>        -0.1627
      5 C4         -3.5967   -0.5469    0.0283 C.ar      1 <0>        -0.1405
      6 C5         -3.6532   -1.9283    0.0271 C.ar      1 <0>        -0.1050
      7 C6         -2.4875   -2.6710    0.0173 C.ar      1 <0>        -0.1722
      8 C7         -1.2572   -2.0300    0.0032 C.ar      1 <0>         0.1959
      9 N1         -0.0754   -2.7797   -0.0127 N.pl3     1 <0>        -0.7376
     10 C8         -0.1366   -4.2434   -0.0199 C.3       1 <0>         0.1864
     11 C9          1.2619   -4.8046   -0.0369 C.2       1 <0>         0.4411
     12 N2          2.2688   -3.9644   -0.0371 N.2       1 <0>        -0.6049
     13 C10         3.5448   -4.3637   -0.0478 C.2       1 <0>         0.5557
     14 O2          4.4570   -3.5546   -0.0521 O.2       1 <0>        -0.4467
     15 C11         3.8182   -5.8362   -0.0537 C.2       1 <0>        -0.3167
     16 C12         5.0079   -6.4586    0.0088 C.2       1 <0>         0.0732
     17 C13         6.3331   -5.7566    0.2972 C.3       1 <0>        -0.0880
     18 C14         6.9687   -6.5034    1.4794 C.3       1 <0>         0.0523
     19 N3          7.0190   -7.9422    1.2061 N.3       1 <0>        -0.5406
     20 C15         5.6839   -8.5495    1.0956 C.3       1 <0>         0.0774
     21 C16         4.9931   -7.9769   -0.1453 C.3       1 <0>        -0.0696
     22 H1          5.4677   -8.3063   -1.0696 H         1 <0>         0.1737
     23 S1          3.1988   -8.3438   -0.0968 S.3       1 <0>         0.0329
     24 C17         2.5997   -6.6729   -0.0638 C.2       1 <0>         0.2848
     25 N4          1.4102   -6.1199   -0.0455 N.2       1 <0>        -0.5324
     26 C18         7.8337   -8.6405    2.2094 C.3       1 <0>         0.0999
     27 C19         9.2699   -8.2014    2.0843 C.ar      1 <0>        -0.0855
     28 C20        10.1297   -8.8814    1.2422 C.ar      1 <0>        -0.0958
     29 C21        11.4471   -8.4786    1.1275 C.ar      1 <0>        -0.1199
     30 C22        11.9045   -7.3955    1.8545 C.ar      1 <0>        -0.1157
     31 C23        11.0444   -6.7149    2.6959 C.ar      1 <0>        -0.1193
     32 C24         9.7259   -7.1151    2.8074 C.ar      1 <0>        -0.1159
     33 H2          1.0053    1.8021    0.0021 H         1 <0>         0.0978
     34 H3         -0.5445    1.7859   -0.8732 H         1 <0>         0.0532
     35 H4         -0.5275    1.7763    0.9067 H         1 <0>         0.0531
     36 H5         -2.3335    1.1781    0.0204 H         1 <0>         0.1267
     37 H6         -4.5101    0.0293    0.0363 H         1 <0>         0.1206
     38 H7         -4.6104   -2.4284    0.0343 H         1 <0>         0.1229
     39 H8         -2.5344   -3.7500    0.0168 H         1 <0>         0.1280
     40 H9          0.7841   -2.3302   -0.0188 H         1 <0>         0.4225
     41 H10        -0.6562   -4.5898    0.8734 H         1 <0>         0.1023
     42 H11        -0.6740   -4.5802   -0.9064 H         1 <0>         0.1025
     43 H12         6.9843   -5.8135   -0.5751 H         1 <0>         0.1140
     44 H13         6.1545   -4.7152    0.5649 H         1 <0>         0.1163
     45 H14         7.9806   -6.1311    1.6392 H         1 <0>         0.1040
     46 H15         6.3765   -6.3274    2.3775 H         1 <0>         0.0430
     47 H16         5.7797   -9.6308    0.9963 H         1 <0>         0.1076
     48 H17         5.0983   -8.3126    1.9839 H         1 <0>         0.0592
     49 H18         7.4659   -8.4005    3.2070 H         1 <0>         0.0506
     50 H19         7.7672   -9.7162    2.0466 H         1 <0>         0.0916
     51 H20         9.7724   -9.7276    0.6742 H         1 <0>         0.1233
     52 H21        12.1191   -9.0103    0.4702 H         1 <0>         0.1231
     53 H22        12.9339   -7.0812    1.7655 H         1 <0>         0.1223
     54 H23        11.4018   -5.8689    3.2642 H         1 <0>         0.1227
     55 H24         9.0530   -6.5810    3.4619 H         1 <0>         0.1190
@<TRIPOS>BOND
     1    1    2 1
     2    1   33 1
     3    1   34 1
     4    1   35 1
     5    2    3 1
     6    3    8 ar
     7    3    4 ar
     8    4    5 ar
     9    4   36 1
    10    5    6 ar
    11    5   37 1
    12    6    7 ar
    13    6   38 1
    14    7    8 ar
    15    7   39 1
    16    8    9 1
    17    9   10 1
    18    9   40 1
    19   10   11 1
    20   10   41 1
    21   10   42 1
    22   11   25 1
    23   11   12 2
    24   12   13 1
    25   13   14 2
    26   13   15 1
    27   15   24 1
    28   15   16 2
    29   16   21 1
    30   16   17 1
    31   17   18 1
    32   17   43 1
    33   17   44 1
    34   18   19 1
    35   18   45 1
    36   18   46 1
    37   19   20 1
    38   19   26 1
    39   20   21 1
    40   20   47 1
    41   20   48 1
    42   21   22 1
    43   21   23 1
    44   23   24 1
    45   24   25 2
    46   26   27 1
    47   26   49 1
    48   26   50 1
    49   27   32 ar
    50   27   28 ar
    51   28   29 ar
    52   28   51 1
    53   29   30 ar
    54   29   52 1
    55   30   31 ar
    56   30   53 1
    57   31   32 ar
    58   31   54 1
    59   32   55 1
@<TRIPOS>MOLECULE
ZINC58537914
   48    52     0     0     0
SMALL
USER_CHARGES

@<TRIPOS>ATOM
      1 C1         -0.0165    1.3664    0.0096 C.ar      1 <0>        -0.1087
      2 C2          1.1563    2.1072    0.0023 C.ar      1 <0>        -0.0911
      3 C3          2.3728    1.4491   -0.0128 C.ar      1 <0>        -0.0678
      4 C4          2.4010    0.0773   -0.0205 C.ar      1 <0>        -0.1343
      5 C5          1.2272   -0.7099   -0.0135 C.ar      1 <0>         0.0830
      6 C6          0.0021   -0.0041    0.0020 C.ar      1 <0>        -0.0589
      7 N1          1.4189   -2.0472   -0.0226 N.2       1 <0>        -0.4800
      8 C7          2.6169   -2.5879   -0.0369 C.2       1 <0>         0.1214
      9 S1          3.6825   -1.1532   -0.0394 S.3       1 <0>        -0.0154
     10 S2          3.0595   -4.2934   -0.0498 S.3       1 <0>         0.0667
     11 C8          4.8734   -4.2759   -0.0674 C.3       1 <0>        -0.0938
     12 C9          5.3893   -5.6917   -0.0795 C.ar      1 <0>        -0.0541
     13 C10         5.6314   -6.3468    1.1149 C.ar      1 <0>        -0.1016
     14 C11         6.1037   -7.6430    1.1108 C.ar      1 <0>        -0.0547
     15 C12         6.3373   -8.2935   -0.1019 C.ar      1 <0>        -0.1228
     16 C13         6.0911   -7.6269   -1.3032 C.ar      1 <0>        -0.0841
     17 C14         5.6134   -6.3328   -1.2850 C.ar      1 <0>        -0.1019
     18 C15         6.8440   -9.6824   -0.1138 C.2       1 <0>         0.5637
     19 O1          7.0579  -10.2603    0.9339 O.2       1 <0>        -0.5256
     20 N2          7.0686  -10.3077   -1.2864 N.am      1 <0>        -0.7239
     21 C16         7.5706  -11.6840   -1.2982 C.3       1 <0>         0.2135
     22 C17         7.7350  -12.1465   -2.7230 C.2       1 <0>         0.1673
     23 N3          6.8304  -12.7391   -3.4536 N.2       1 <0>        -0.2602
     24 N4          7.3129  -12.9930   -4.6180 N.2       1 <0>        -0.2765
     25 C18         8.5493  -12.5747   -4.6818 C.2       1 <0>         0.1674
     26 N5          8.8486  -12.0191   -3.4864 N.pl3     1 <0>        -0.4874
     27 C19        10.2237  -11.5054   -3.4705 C.3       1 <0>         0.0994
     28 C20        10.9310  -12.1779   -4.6673 C.3       1 <0>        -0.1296
     29 C21         9.7454  -12.4890   -5.6050 C.3       1 <0>        -0.0430
     30 H1         -0.9658    1.8812    0.0260 H         1 <0>         0.1379
     31 H2          1.1200    3.1866    0.0081 H         1 <0>         0.1419
     32 H3          3.2948    2.0116   -0.0190 H         1 <0>         0.1354
     33 H4         -0.9293   -0.5508    0.0084 H         1 <0>         0.1361
     34 H5          5.2231   -3.7540   -0.9581 H         1 <0>         0.1104
     35 H6          5.2404   -3.7630    0.8217 H         1 <0>         0.1111
     36 H7          5.4505   -5.8423    2.0525 H         1 <0>         0.1384
     37 H8          6.2926   -8.1532    2.0437 H         1 <0>         0.1441
     38 H9          6.2698   -8.1246   -2.2448 H         1 <0>         0.1286
     39 H10         5.4183   -5.8173   -2.2138 H         1 <0>         0.1363
     40 H11         6.8978   -9.8466   -2.1225 H         1 <0>         0.4033
     41 H12         8.5339  -11.7237   -0.7899 H         1 <0>         0.0901
     42 H13         6.8618  -12.3337   -0.7848 H         1 <0>         0.1092
     43 H14        10.2229  -10.4223   -3.5933 H         1 <0>         0.0982
     44 H15        10.7176  -11.7793   -2.5383 H         1 <0>         0.0992
     45 H16        11.6365  -11.4933   -5.1382 H         1 <0>         0.1086
     46 H17        11.4286  -13.0975   -4.3595 H         1 <0>         0.0920
     47 H18         9.8962  -13.4364   -6.1226 H         1 <0>         0.1078
     48 H19         9.6163  -11.6782   -6.3219 H         1 <0>         0.1044
@<TRIPOS>BOND
     1    1    6 ar
     2    1    2 ar
     3    1   30 1
     4    2    3 ar
     5    2   31 1
     6    3    4 ar
     7    3   32 1
     8    4    9 1
     9    4    5 ar
    10    5    6 ar
    11    5    7 1
    12    6   33 1
    13    7    8 2
    14    8    9 1
    15    8   10 1
    16   10   11 1
    17   11   12 1
    18   11   34 1
    19   11   35 1
    20   12   17 ar
    21   12   13 ar
    22   13   14 ar
    23   13   36 1
    24   14   15 ar
    25   14   37 1
    26   15   16 ar
    27   15   18 1
    28   16   17 ar
    29   16   38 1
    30   17   39 1
    31   18   19 2
    32   18   20 am
    33   20   21 1
    34   20   40 1
    35   21   22 1
    36   21   41 1
    37   21   42 1
    38   22   26 1
    39   22   23 2
    40   23   24 1
    41   24   25 2
    42   25   29 1
    43   25   26 1
    44   26   27 1
    45   27   28 1
    46   27   43 1
    47   27   44 1
    48   28   29 1
    49   28   45 1
    50   28   46 1
    51   29   47 1
    52   29   48 1
@<TRIPOS>MOLECULE
ZINC03374221
   47    48     0     0     0
SMALL
USER_CHARGES
2-(6-bromo-3-ethyl-4-oxo-quinazolin-2-yl)sulfanyl-N-(1-cyano-1,2-dimethyl-propyl)-acetamide
@<TRIPOS>ATOM
      1 C1         -0.7527    1.5927   -1.2315 C.3       1 <0>        -0.1702
      2 C2         -0.0127    1.0858    0.0080 C.3       1 <0>         0.0827
      3 N1         -0.6984    1.5583    1.2133 N.am      1 <0>        -0.5261
      4 C3         -1.6779    0.8063    1.7668 C.2       1 <0>         0.5570
      5 O1         -2.0041   -0.2614    1.2814 O.2       1 <0>        -0.4957
      6 C4         -2.3334    1.3258    2.9745 C.ar      1 <0>        -0.2000
      7 C5         -3.3526    0.6250    3.6182 C.ar      1 <0>        -0.0037
      8 C6         -3.9321    1.1599    4.7485 C.ar      1 <0>        -0.1185
      9 C7         -3.5086    2.3864    5.2470 C.ar      1 <0>        -0.0419
     10 C8         -2.5116    3.0887    4.6319 C.ar      1 <0>        -0.1076
     11 C9         -1.9045    2.5727    3.4834 C.ar      1 <0>         0.1858
     12 N2         -0.9133    3.2387    2.8456 N.2       1 <0>        -0.5385
     13 C10        -0.3403    2.7515    1.7727 C.2       1 <0>         0.3629
     14 S1          0.9470    3.6832    1.0115 S.3       1 <0>         0.0919
     15 C11         1.0023    5.1101    2.1238 C.3       1 <0>        -0.1541
     16 C12         2.0640    6.0714    1.6552 C.2       1 <0>         0.5341
     17 O2          2.7189    5.8169    0.6666 O.2       1 <0>        -0.5087
     18 N3          2.2859    7.2140    2.3348 N.am      1 <0>        -0.7133
     19 C13         3.3180    8.1486    1.8793 C.3       1 <0>         0.2842
     20 C14         2.9894    8.6198    0.4612 C.3       1 <0>        -0.1693
     21 C15         4.6263    7.4738    1.8814 C.1       1 <0>         0.2018
     22 N4          5.6359    6.9531    1.8830 N.1       1 <0>        -0.4050
     23 C16         3.3647    9.3547    2.8195 C.3       1 <0>        -0.0934
     24 C17         3.8148    8.9006    4.2095 C.3       1 <0>        -0.1585
     25 C18         4.3537   10.3875    2.2753 C.3       1 <0>        -0.1550
     26 Br1        -5.3155    0.2176    5.6283 Br        1 <0>        -0.0352
     27 H1         -1.7753    1.2154   -1.2238 H         1 <0>         0.0653
     28 H2         -0.7675    2.6825   -1.2255 H         1 <0>         0.0675
     29 H3         -0.2425    1.2411   -2.1283 H         1 <0>         0.0848
     30 H4          0.0021   -0.0041    0.0020 H         1 <0>         0.1087
     31 H5          1.0099    1.4631    0.0003 H         1 <0>         0.1001
     32 H6         -3.6847   -0.3285    3.2348 H         1 <0>         0.1485
     33 H7         -3.9746    2.7898    6.1339 H         1 <0>         0.1450
     34 H8         -2.1931    4.0400    5.0318 H         1 <0>         0.1488
     35 H9          0.0335    5.6097    2.1223 H         1 <0>         0.1371
     36 H10         1.2364    4.7744    3.1340 H         1 <0>         0.1339
     37 H11         1.7621    7.4175    3.1255 H         1 <0>         0.4139
     38 H12         2.0207    9.1194    0.4597 H         1 <0>         0.0812
     39 H13         3.7574    9.3151    0.1223 H         1 <0>         0.0811
     40 H14         2.9562    7.7605   -0.2086 H         1 <0>         0.0874
     41 H15         2.3728    9.8016    2.8867 H         1 <0>         0.1025
     42 H16         4.8067    8.4537    4.1423 H         1 <0>         0.0575
     43 H17         3.8481    9.7599    4.8794 H         1 <0>         0.0714
     44 H18         3.1102    8.1648    4.5972 H         1 <0>         0.0601
     45 H19         4.0331   10.7110    1.2851 H         1 <0>         0.0702
     46 H20         4.3870   11.2468    2.9452 H         1 <0>         0.0713
     47 H21         5.3456    9.9406    2.2081 H         1 <0>         0.0577
@<TRIPOS>BOND
     1    1    2 1
     2    1   27 1
     3    1   28 1
     4    1   29 1
     5    2    3 1
     6    2   30 1
     7    2   31 1
     8    3   13 1
     9    3    4 am
    10    4    5 2
    11    4    6 1
    12    6   11 ar
    13    6    7 ar
    14    7    8 ar
    15    7   32 1
    16    8    9 ar
    17    8   26 1
    18    9   10 ar
    19    9   33 1
    20   10   11 ar
    21   10   34 1
    22   11   12 1
    23   12   13 2
    24   13   14 1
    25   14   15 1
    26   15   16 1
    27   15   35 1
    28   15   36 1
    29   16   17 2
    30   16   18 am
    31   18   19 1
    32   18   37 1
    33   19   20 1
    34   19   21 1
    35   19   23 1
    36   20   38 1
    37   20   39 1
    38   20   40 1
    39   21   22 3
    40   23   24 1
    41   23   25 1
    42   23   41 1
    43   24   42 1
    44   24   43 1
    45   24   44 1
    46   25   45 1
    47   25   46 1
    48   25   47 1
@<TRIPOS>MOLECULE
ZINC20139060
   54    57     0     0     0
SMALL
USER_CHARGES
N-benzyl-3-[2,4-dioxo-1-(p-tolylmethyl)thieno[3,2-d]pyrimidin-3-yl]propanamide
@<TRIPOS>ATOM
      1 C1         -4.0451  -10.7466    5.9371 C.3       1 <0>        -0.1212
      2 C2         -3.6149   -9.3267    6.2011 C.ar      1 <0>        -0.0724
      3 C3         -2.8601   -9.0299    7.3204 C.ar      1 <0>        -0.1249
      4 C4         -2.4647   -7.7275    7.5621 C.ar      1 <0>        -0.0963
      5 C5         -2.8239   -6.7220    6.6842 C.ar      1 <0>        -0.1282
      6 C6         -3.5832   -7.0179    5.5676 C.ar      1 <0>        -0.0843
      7 C7         -3.9749   -8.3210    5.3236 C.ar      1 <0>        -0.1245
      8 C8         -2.3929   -5.3022    6.9476 C.3       1 <0>         0.1533
      9 N1         -1.0961   -5.0593    6.3107 N.am      1 <0>        -0.5179
     10 C9          0.0863   -5.3063    7.0278 C.2       1 <0>         0.2026
     11 C10         0.2449   -5.7747    8.3290 C.2       1 <0>        -0.2001
     12 C11         1.4864   -5.9467    8.8388 C.2       1 <0>        -0.1493
     13 S1          2.5262   -5.4661    7.5366 S.3       1 <0>         0.2662
     14 C12         1.2796   -5.0488    6.3475 C.2       1 <0>        -0.3432
     15 C13         1.2836   -4.5794    5.0299 C.2       1 <0>         0.6005
     16 O1          2.3350   -4.3665    4.4530 O.2       1 <0>        -0.5009
     17 N2          0.1031   -4.3615    4.4074 N.am      1 <0>        -0.5498
     18 C14        -1.0519   -4.6044    5.0501 C.2       1 <0>         0.7037
     19 O2         -2.0989   -4.4041    4.4648 O.2       1 <0>        -0.5353
     20 C15         0.0833   -3.8658    3.0290 C.3       1 <0>         0.1303
     21 C16         0.0626   -2.3359    3.0374 C.3       1 <0>        -0.1556
     22 C17         0.0422   -1.8260    1.6194 C.2       1 <0>         0.5248
     23 O3          0.0441   -2.6091    0.6933 O.2       1 <0>        -0.5400
     24 N3          0.0219   -0.4998    1.3805 N.am      1 <0>        -0.7364
     25 C18         0.0021   -0.0041    0.0020 C.3       1 <0>         0.1625
     26 C19        -0.0184    1.5028    0.0103 C.ar      1 <0>        -0.1090
     27 C20        -1.2248    2.1776    0.0197 C.ar      1 <0>        -0.1009
     28 C21        -1.2435    3.5598    0.0322 C.ar      1 <0>        -0.1216
     29 C22        -0.0559    4.2672    0.0251 C.ar      1 <0>        -0.1116
     30 C23         1.1505    3.5924    0.0100 C.ar      1 <0>        -0.1215
     31 C24         1.1693    2.2102    0.0028 C.ar      1 <0>        -0.1007
     32 H1         -3.6670  -11.3992    6.7379 H         1 <0>         0.0668
     33 H2         -3.6387  -11.0791    4.9705 H         1 <0>         0.0720
     34 H3         -5.1436  -10.7979    5.9102 H         1 <0>         0.0727
     35 H4         -2.5789   -9.8156    8.0060 H         1 <0>         0.1241
     36 H5         -1.8750   -7.4957    8.4366 H         1 <0>         0.1213
     37 H6         -3.8675   -6.2316    4.8840 H         1 <0>         0.1311
     38 H7         -4.5643   -8.5529    4.4489 H         1 <0>         0.1244
     39 H8         -3.1402   -4.6094    6.5335 H         1 <0>         0.1134
     40 H9         -2.3047   -5.1410    8.0321 H         1 <0>         0.1024
     41 H10        -0.6226   -6.0004    8.9314 H         1 <0>         0.1473
     42 H11         1.7635   -6.2992    9.8213 H         1 <0>         0.2058
     43 H12         0.9813   -4.2175    2.5000 H         1 <0>         0.1112
     44 H13        -0.8147   -4.2418    2.5170 H         1 <0>         0.1112
     45 H14        -0.8354   -1.9843    3.5665 H         1 <0>         0.1011
     46 H15         0.9606   -1.9598    3.5494 H         1 <0>         0.1009
     47 H16         0.0202    0.2105    2.2205 H         1 <0>         0.4233
     48 H17         0.9002   -0.3557   -0.5270 H         1 <0>         0.0762
     49 H18        -0.8959   -0.3802   -0.5101 H         1 <0>         0.0761
     50 H19        -2.1527    1.6249    0.0211 H         1 <0>         0.1238
     51 H20        -2.1860    4.0870    0.0437 H         1 <0>         0.1244
     52 H21        -0.0705    5.3471    0.0311 H         1 <0>         0.1237
     53 H22         2.0784    4.1450    0.0041 H         1 <0>         0.1246
     54 H23         2.1118    1.6830   -0.0091 H         1 <0>         0.1240
@<TRIPOS>BOND
     1    1    2 1
     2    1   32 1
     3    1   33 1
     4    1   34 1
     5    2    7 ar
     6    2    3 ar
     7    3    4 ar
     8    3   35 1
     9    4    5 ar
    10    4   36 1
    11    5    6 ar
    12    5    8 1
    13    6    7 ar
    14    6   37 1
    15    7   38 1
    16    8    9 1
    17    8   39 1
    18    8   40 1
    19    9   18 am
    20    9   10 1
    21   10   14 2
    22   10   11 1
    23   11   12 2
    24   11   41 1
    25   12   13 1
    26   12   42 1
    27   13   14 1
    28   14   15 1
    29   15   16 2
    30   15   17 am
    31   17   18 am
    32   17   20 1
    33   18   19 2
    34   20   21 1
    35   20   43 1
    36   20   44 1
    37   21   22 1
    38   21   45 1
    39   21   46 1
    40   22   23 2
    41   22   24 am
    42   24   25 1
    43   24   47 1
    44   25   26 1
    45   25   48 1
    46   25   49 1
    47   26   31 ar
    48   26   27 ar
    49   27   28 ar
    50   27   50 1
    51   28   29 ar
    52   28   51 1
    53   29   30 ar
    54   29   52 1
    55   30   31 ar
    56   30   53 1
    57   31   54 1
@<TRIPOS>MOLECULE
ZINC32739196
   55    58     0     0     0
SMALL
USER_CHARGES
N-[[4-(1-piperidylsulfonyl)phenyl]methyl]indane-5-sulfonamide
@<TRIPOS>ATOM
      1 C1          0.0021   -0.0041    0.0020 C.ar      1 <0>        -0.1249
      2 C2         -0.0167    1.3781    0.0096 C.ar      1 <0>        -0.0206
      3 C3          1.1709    2.0855    0.0021 C.ar      1 <0>        -0.6701
      4 C4          2.3773    1.4107   -0.0136 C.ar      1 <0>        -0.0198
      5 C5          2.3961    0.0285   -0.0212 C.ar      1 <0>        -0.1180
      6 C6          1.2084   -0.6789   -0.0136 C.ar      1 <0>        -0.0415
      7 C7          1.2289   -2.1857   -0.0219 C.3       1 <0>         0.1502
      8 N1          1.2217   -2.6666   -1.4057 N.pl3     1 <0>        -1.1192
      9 S1          1.6111   -4.2417   -1.7370 S.o2      1 <0>         2.6948
     10 O1          1.4881   -4.4033   -3.1434 O.2       1 <0>        -0.9535
     11 O2          2.8195   -4.5162   -1.0414 O.2       1 <0>        -0.9530
     12 C8          0.3672   -5.2512   -1.0033 C.ar      1 <0>        -0.6835
     13 C9         -0.7610   -5.5934   -1.7253 C.ar      1 <0>        -0.0195
     14 C10        -1.7345   -6.3852   -1.1484 C.ar      1 <0>        -0.1280
     15 C11        -1.5847   -6.8377    0.1519 C.ar      1 <0>        -0.0411
     16 C12        -0.4567   -6.4956    0.8737 C.ar      1 <0>        -0.1199
     17 C13         0.5211   -5.7062    0.2916 C.ar      1 <0>        -0.0110
     18 C14        -0.5282   -7.1085    2.2559 C.3       1 <0>        -0.0888
     19 C15        -1.6008   -8.2135    2.1528 C.3       1 <0>        -0.1179
     20 C16        -2.4914   -7.7041    0.9997 C.3       1 <0>        -0.0889
     21 S2          1.1470    3.8473    0.0112 S.o2      1 <0>         2.6882
     22 O3          2.3816    4.2732   -0.5490 O.2       1 <0>        -0.9521
     23 O4         -0.1088    4.2393   -0.5259 O.2       1 <0>        -0.9530
     24 N2          1.1552    4.3289    1.5957 N.pl3     1 <0>        -0.9956
     25 C17        -0.1052    4.5353    2.3219 C.3       1 <0>         0.1164
     26 C18        -0.0680    3.7019    3.6118 C.3       1 <0>        -0.1360
     27 C19         1.1848    4.0664    4.4118 C.3       1 <0>        -0.1192
     28 C20         2.4319    3.7354    3.5887 C.3       1 <0>        -0.1366
     29 C21         2.4230    4.5638    2.3001 C.3       1 <0>         0.1166
     30 H1         -0.9258   -0.5567    0.0079 H         1 <0>         0.1352
     31 H2         -0.9592    1.9054    0.0170 H         1 <0>         0.1412
     32 H3          3.3052    1.9634   -0.0188 H         1 <0>         0.1421
     33 H4          3.3386   -0.4987   -0.0327 H         1 <0>         0.1382
     34 H5          2.1371   -2.5428    0.4857 H         1 <0>         0.0983
     35 H6          0.3411   -2.5674    0.5035 H         1 <0>         0.0755
     36 H7          0.8025   -2.0372   -2.2045 H         1 <0>         0.4460
     37 H8         -0.8809   -5.2422   -2.7395 H         1 <0>         0.1423
     38 H9         -2.6156   -6.6521   -1.7131 H         1 <0>         0.1319
     39 H10         1.4048   -5.4421    0.8534 H         1 <0>         0.1373
     40 H11         0.4548   -7.5227    2.5246 H         1 <0>         0.0803
     41 H12        -0.8123   -6.3358    2.9854 H         1 <0>         0.0838
     42 H13        -1.1163   -9.1748    1.9265 H         1 <0>         0.0769
     43 H14        -2.1406   -8.2909    3.1081 H         1 <0>         0.0825
     44 H15        -3.3311   -7.1000    1.3737 H         1 <0>         0.0901
     45 H16        -2.8794   -8.5342    0.3911 H         1 <0>         0.0838
     46 H17        -0.2164    5.6017    2.5675 H         1 <0>         0.0781
     47 H18        -0.9480    4.2143    1.6922 H         1 <0>         0.0915
     48 H19        -0.9643    3.9158    4.2125 H         1 <0>         0.0769
     49 H20        -0.0443    2.6322    3.3567 H         1 <0>         0.0670
     50 H21         1.1728    5.1420    4.6419 H         1 <0>         0.0665
     51 H22         1.2015    3.4911    5.3492 H         1 <0>         0.0659
     52 H23         3.3318    3.9750    4.1741 H         1 <0>         0.0776
     53 H24         2.4321    2.6644    3.3378 H         1 <0>         0.0672
     54 H25         3.2618    4.2609    1.6562 H         1 <0>         0.0917
     55 H26         2.5148    5.6327    2.5432 H         1 <0>         0.0780
@<TRIPOS>BOND
     1    1    6 ar
     2    1    2 ar
     3    1   30 1
     4    2    3 ar
     5    2   31 1
     6    3    4 ar
     7    3   21 1
     8    4    5 ar
     9    4   32 1
    10    5    6 ar
    11    5   33 1
    12    6    7 1
    13    7    8 1
    14    7   34 1
    15    7   35 1
    16    8    9 1
    17    8   36 1
    18    9   10 2
    19    9   11 2
    20    9   12 1
    21   12   17 ar
    22   12   13 ar
    23   13   14 ar
    24   13   37 1
    25   14   15 ar
    26   14   38 1
    27   15   20 1
    28   15   16 ar
    29   16   17 ar
    30   16   18 1
    31   17   39 1
    32   18   19 1
    33   18   40 1
    34   18   41 1
    35   19   20 1
    36   19   42 1
    37   19   43 1
    38   20   44 1
    39   20   45 1
    40   21   22 2
    41   21   23 2
    42   21   24 1
    43   24   29 1
    44   24   25 1
    45   25   26 1
    46   25   46 1
    47   25   47 1
    48   26   27 1
    49   26   48 1
    50   26   49 1
    51   27   28 1
    52   27   50 1
    53   27   51 1
    54   28   29 1
    55   28   52 1
    56   28   53 1
    57   29   54 1
    58   29   55 1
@<TRIPOS>MOLECULE
ZINC44885972
   56    59     0     0     0
SMALL
USER_CHARGES

@<TRIPOS>ATOM
      1 C1         -0.0163    1.3513    0.0095 C.2       1 <0>        -0.1913
      2 C2          1.1833    2.0380    0.0017 C.2       1 <0>        -0.0041
      3 C3          2.3426    1.3358   -0.0131 C.2       1 <0>        -0.7658
      4 S1          1.7535   -0.3495   -0.0166 S.3       1 <0>         0.1602
      5 C4          0.0021   -0.0041    0.0020 C.2       1 <0>        -0.1309
      6 S2          4.0007    1.9316   -0.0263 S.o2      1 <0>         2.7240
      7 O1          4.7986    0.8998   -0.5901 O.2       1 <0>        -0.9457
      8 O2          3.9565    3.2437   -0.5701 O.2       1 <0>        -0.9444
      9 N1          4.4769    2.0892    1.5520 N.pl3     1 <0>        -0.9934
     10 C5          4.2592    3.3482    2.2774 C.3       1 <0>         0.1186
     11 C6          3.5049    3.0450    3.5758 C.3       1 <0>        -0.1159
     12 C7          4.2716    1.9858    4.3711 C.3       1 <0>        -0.1047
     13 C8          4.3611    0.6962    3.5520 C.3       1 <0>        -0.1287
     14 C9          5.1196    0.9707    2.2552 C.3       1 <0>         0.1206
     15 C10         3.5503    1.7098    5.6651 C.2       1 <0>         0.5160
     16 O3          2.5243    2.3017    5.9256 O.2       1 <0>        -0.5377
     17 N2          4.0453    0.8051    6.5329 N.am      1 <0>        -0.7262
     18 C11         3.3440    0.5368    7.7908 C.3       1 <0>         0.1698
     19 C12         4.0988   -0.5062    8.5741 C.ar      1 <0>        -0.1741
     20 C13         3.8139   -1.8469    8.3908 C.ar      1 <0>        -0.0486
     21 C14         4.5037   -2.8053    9.1069 C.ar      1 <0>        -0.1980
     22 C15         5.4847   -2.4212   10.0123 C.ar      1 <0>         0.2464
     23 C16         5.7685   -1.0736   10.1940 C.ar      1 <0>        -0.1985
     24 C17         5.0788   -0.1206    9.4704 C.ar      1 <0>        -0.0485
     25 N3          6.1840   -3.3878   10.7386 N.pl3     1 <0>        -0.6354
     26 C18         5.9888   -4.8417   10.6395 C.3       1 <0>         0.1117
     27 C19         6.9579   -5.5035   11.6417 C.3       1 <0>        -0.1330
     28 C20         7.2427   -4.3630   12.6544 C.3       1 <0>        -0.1345
     29 C21         7.2445   -3.1196   11.7269 C.3       1 <0>         0.1100
     30 H1         -0.9542    1.8866    0.0258 H         1 <0>         0.1460
     31 H2          1.1967    3.1179    0.0070 H         1 <0>         0.1473
     32 H3         -0.8275   -0.6955    0.0065 H         1 <0>         0.1966
     33 H4          5.2203    3.8059    2.5115 H         1 <0>         0.0819
     34 H5          3.6690    4.0272    1.6620 H         1 <0>         0.0961
     35 H6          3.4213    3.9556    4.1691 H         1 <0>         0.0867
     36 H7          2.5086    2.6717    3.3391 H         1 <0>         0.0757
     37 H8          5.2763    2.3499    4.5861 H         1 <0>         0.1027
     38 H9          4.8869   -0.0651    4.1284 H         1 <0>         0.0832
     39 H10         3.3567    0.3449    3.3155 H         1 <0>         0.0754
     40 H11         5.0969    0.0815    1.6251 H         1 <0>         0.0964
     41 H12         6.1525    1.2302    2.4875 H         1 <0>         0.0833
     42 H13         4.8659    0.3317    6.3245 H         1 <0>         0.4012
     43 H14         3.2813    1.4549    8.3748 H         1 <0>         0.0723
     44 H15         2.3391    0.1732    7.5762 H         1 <0>         0.0718
     45 H16         3.0508   -2.1448    7.6870 H         1 <0>         0.1220
     46 H17         4.2804   -3.8522    8.9635 H         1 <0>         0.1202
     47 H18         6.5303   -0.7715   10.8974 H         1 <0>         0.1207
     48 H19         5.3019    0.9271    9.6080 H         1 <0>         0.1225
     49 H20         4.9602   -5.0958   10.8954 H         1 <0>         0.0620
     50 H21         6.2152   -5.1780    9.6277 H         1 <0>         0.0620
     51 H22         6.4816   -6.3494   12.1374 H         1 <0>         0.0829
     52 H23         7.8757   -5.8143   11.1428 H         1 <0>         0.0770
     53 H24         6.4512   -4.2967   13.4009 H         1 <0>         0.0766
     54 H25         8.2150   -4.4957   13.1290 H         1 <0>         0.0846
     55 H26         8.2089   -3.0157   11.2297 H         1 <0>         0.0633
     56 H27         7.0123   -2.2206   12.2979 H         1 <0>         0.0719
@<TRIPOS>BOND
     1    1    5 2
     2    1    2 1
     3    1   30 1
     4    2    3 2
     5    2   31 1
     6    3    4 1
     7    3    6 1
     8    4    5 1
     9    5   32 1
    10    6    7 2
    11    6    8 2
    12    6    9 1
    13    9   14 1
    14    9   10 1
    15   10   11 1
    16   10   33 1
    17   10   34 1
    18   11   12 1
    19   11   35 1
    20   11   36 1
    21   12   13 1
    22   12   15 1
    23   12   37 1
    24   13   14 1
    25   13   38 1
    26   13   39 1
    27   14   40 1
    28   14   41 1
    29   15   16 2
    30   15   17 am
    31   17   18 1
    32   17   42 1
    33   18   19 1
    34   18   43 1
    35   18   44 1
    36   19   24 ar
    37   19   20 ar
    38   20   21 ar
    39   20   45 1
    40   21   22 ar
    41   21   46 1
    42   22   23 ar
    43   22   25 1
    44   23   24 ar
    45   23   47 1
    46   24   48 1
    47   25   29 1
    48   25   26 1
    49   26   27 1
    50   26   49 1
    51   26   50 1
    52   27   28 1
    53   27   51 1
    54   27   52 1
    55   28   29 1
    56   28   53 1
    57   28   54 1
    58   29   55 1
    59   29   56 1
@<TRIPOS>MOLECULE
ZINC39936113
   61    65     0     0     0
SMALL
USER_CHARGES

@<TRIPOS>ATOM
      1 C1         -0.0167    1.3774    0.0096 C.ar      1 <0>        -0.1209
      2 C2          1.1693    2.0877    0.0021 C.ar      1 <0>        -0.1196
      3 C3          2.3782    1.4190   -0.0134 C.ar      1 <0>        -0.1318
      4 C4          2.4072    0.0295   -0.0216 C.ar      1 <0>         0.1240
      5 C5          1.2132   -0.6856   -0.0136 C.ar      1 <0>         0.1124
      6 C6          0.0021   -0.0041    0.0020 C.ar      1 <0>        -0.1299
      7 N1          1.4838   -2.0610   -0.0241 N.pl3     1 <0>        -0.7352
      8 C7          2.9429   -2.2194   -0.0397 C.3       1 <0>         0.4277
      9 H1          3.2542   -2.7492   -0.9400 H         1 <0>         0.1136
     10 N2          3.4919   -0.8582   -0.0376 N.pl3     1 <0>        -0.6194
     11 C8          4.9110   -0.4945   -0.0503 C.3       1 <0>         0.1845
     12 C9          5.2391    0.3235    1.2003 C.3       1 <0>        -0.1310
     13 C10         6.7212    0.7033    1.1871 C.3       1 <0>        -0.1169
     14 C11         7.0231    1.5358   -0.0606 C.3       1 <0>        -0.1223
     15 C12         6.6951    0.7178   -1.3112 C.3       1 <0>        -0.1171
     16 C13         5.2130    0.3380   -1.2980 C.3       1 <0>        -0.1322
     17 S1          3.4908   -3.1199    1.4366 S.3       1 <0>        -0.2495
     18 C14         2.9015   -2.1003    2.8164 C.3       1 <0>        -0.1253
     19 C15         3.2957   -2.7439    4.1208 C.2       1 <0>         0.4279
     20 O1          3.9135   -3.7881    4.1197 O.2       1 <0>        -0.4138
     21 C16         2.9336   -2.1102    5.3873 C.2       1 <0>        -0.2103
     22 C17         3.2166   -2.5555    6.6322 C.2       1 <0>        -0.0528
     23 C18         2.6664   -1.6126    7.6151 C.2       1 <0>         0.1205
     24 N3          2.0683   -0.6253    7.0270 N.2       1 <0>        -0.4079
     25 C19         2.1706   -0.8176    5.5755 C.3       1 <0>         0.0228
     26 C20         2.7808   -1.7704    9.0897 C.2       1 <0>         0.5899
     27 O2          3.3611   -2.7307    9.5544 O.2       1 <0>        -0.5183
     28 N4          2.2404   -0.8477    9.9101 N.am      1 <0>        -0.6011
     29 C21         1.5087    0.3542    9.4840 C.3       1 <0>         0.1066
     30 C22         1.1021    1.1198   10.7608 C.3       1 <0>        -0.1359
     31 C23         2.1162    0.6015   11.8145 C.3       1 <0>        -0.1343
     32 C24         2.2796   -0.8797   11.3835 C.3       1 <0>         0.1032
     33 H2         -0.9597    1.9034    0.0259 H         1 <0>         0.1234
     34 H3          1.1508    3.1675    0.0080 H         1 <0>         0.1231
     35 H4          3.3027    1.9772   -0.0196 H         1 <0>         0.1209
     36 H5         -0.9265   -0.5556    0.0082 H         1 <0>         0.1196
     37 H6          0.8281   -2.7758   -0.0212 H         1 <0>         0.4303
     38 H7          5.5180   -1.3998   -0.0619 H         1 <0>         0.0958
     39 H8          4.6321    1.2288    1.2119 H         1 <0>         0.0695
     40 H9          5.0240   -0.2696    2.0892 H         1 <0>         0.0633
     41 H10         6.9549    1.2861    2.0780 H         1 <0>         0.0666
     42 H11         7.3281   -0.2020    1.1755 H         1 <0>         0.0661
     43 H12         6.4162    2.4411   -0.0490 H         1 <0>         0.0626
     44 H13         8.0790    1.8064   -0.0701 H         1 <0>         0.0654
     45 H14         6.9102    1.3109   -2.2001 H         1 <0>         0.0674
     46 H15         7.3020   -0.1875   -1.3228 H         1 <0>         0.0649
     47 H16         4.9793   -0.2448   -2.1889 H         1 <0>         0.0661
     48 H17         4.6060    1.2433   -1.2864 H         1 <0>         0.0703
     49 H18         3.3478   -1.1080    2.7514 H         1 <0>         0.1154
     50 H19         1.8160   -2.0144    2.7670 H         1 <0>         0.1144
     51 H20         3.7596   -3.4592    6.8663 H         1 <0>         0.1642
     52 H21         2.7149    0.0104    5.1213 H         1 <0>         0.1397
     53 H22         1.1758   -0.9004    5.1377 H         1 <0>         0.1393
     54 H23         2.1521    0.9801    8.8655 H         1 <0>         0.0782
     55 H24         0.6184    0.0673    8.9245 H         1 <0>         0.0768
     56 H25         1.2110    2.1948   10.6170 H         1 <0>         0.0853
     57 H26         0.0819    0.8700   11.0519 H         1 <0>         0.0783
     58 H27         3.0618    1.1390   11.7442 H         1 <0>         0.0785
     59 H28         1.7034    0.6704   12.8210 H         1 <0>         0.0884
     60 H29         1.4590   -1.4830   11.7718 H         1 <0>         0.0751
     61 H30         3.2362   -1.2716   11.7291 H         1 <0>         0.0837
@<TRIPOS>BOND
     1    1    6 ar
     2    1    2 ar
     3    1   33 1
     4    2    3 ar
     5    2   34 1
     6    3    4 ar
     7    3   35 1
     8    4   10 1
     9    4    5 ar
    10    5    6 ar
    11    5    7 1
    12    6   36 1
    13    7    8 1
    14    7   37 1
    15    8    9 1
    16    8   10 1
    17    8   17 1
    18   10   11 1
    19   11   16 1
    20   11   12 1
    21   11   38 1
    22   12   13 1
    23   12   39 1
    24   12   40 1
    25   13   14 1
    26   13   41 1
    27   13   42 1
    28   14   15 1
    29   14   43 1
    30   14   44 1
    31   15   16 1
    32   15   45 1
    33   15   46 1
    34   16   47 1
    35   16   48 1
    36   17   18 1
    37   18   19 1
    38   18   49 1
    39   18   50 1
    40   19   20 2
    41   19   21 1
    42   21   25 1
    43   21   22 2
    44   22   23 1
    45   22   51 1
    46   23   24 2
    47   23   26 1
    48   24   25 1
    49   25   52 1
    50   25   53 1
    51   26   27 2
    52   26   28 am
    53   28   32 1
    54   28   29 1
    55   29   30 1
    56   29   54 1
    57   29   55 1
    58   30   31 1
    59   30   56 1
    60   30   57 1
    61   31   32 1
    62   31   58 1
    63   31   59 1
    64   32   60 1
    65   32   61 1
@<TRIPOS>MOLECULE
ZINC01825599
   53    56     0     0     0
SMALL
USER_CHARGES
9-[[4-oxo-3-(1-phenylethyl)-2-thioxo-thiazolidin-5-ylidene]methyl]-8-propylamino-1,7-diazabicyclo[4.4.0]deca-2,4,6,8-tetraen-10-one
@<TRIPOS>ATOM
      1 C1          0.6032    0.6186   -1.6333 C.3       1 <0>        -0.1472
      2 C2         -0.2926    1.1215   -0.4996 C.3       1 <0>        -0.1409
      3 C3          0.0579    0.3825    0.7935 C.3       1 <0>         0.1198
      4 N1         -0.7998    0.8641    1.8791 N.pl3     1 <0>        -0.6835
      5 C4         -0.6662    0.3406    3.1465 C.2       1 <0>         0.5183
      6 C5         -1.4920    0.8020    4.1985 C.2       1 <0>        -0.4268
      7 C6         -1.3204    0.2364    5.4846 C.2       1 <0>         0.5496
      8 O1         -2.0097    0.6041    6.4203 O.2       1 <0>        -0.5149
      9 N2         -0.3800   -0.7172    5.6577 N.am      1 <0>        -0.4385
     10 C7         -0.2078   -1.2676    6.8929 C.2       1 <0>         0.1143
     11 C8          0.7243   -2.2246    7.1004 C.2       1 <0>        -0.1737
     12 C9          1.5294   -2.6634    6.0404 C.2       1 <0>        -0.0100
     13 C10         1.3653   -2.1189    4.8013 C.2       1 <0>        -0.1501
     14 C11         0.3898   -1.1251    4.6040 C.2       1 <0>         0.4456
     15 N3          0.2329   -0.6025    3.3874 N.2       1 <0>        -0.5790
     16 C12        -2.4643    1.8037    3.9710 C.2       1 <0>         0.1919
     17 C13        -3.4315    1.6140    3.0268 C.2       1 <0>        -0.2959
     18 C14        -4.4186    2.5210    2.5464 C.2       1 <0>         0.5419
     19 O2         -4.4900    3.6571    2.9809 O.2       1 <0>        -0.4597
     20 N4         -5.2524    2.0970    1.6126 N.am      1 <0>        -0.5176
     21 C15        -5.1773    0.8345    1.1354 C.2       1 <0>         0.2802
     22 S1         -6.1475    0.0773   -0.0547 S.2       1 <0>        -0.3318
     23 S2         -3.8090    0.1569    2.0626 S.3       1 <0>         0.0569
     24 C16        -6.2767    3.0060    1.0923 C.3       1 <0>         0.1626
     25 H1         -7.2524    2.5232    1.1469 H         1 <0>         0.1114
     26 C17        -6.2940    4.2871    1.9286 C.3       1 <0>        -0.1377
     27 C18        -5.9643    3.3466   -0.3421 C.ar      1 <0>        -0.0916
     28 C19        -4.6549    3.5533   -0.7340 C.ar      1 <0>        -0.1088
     29 C20        -4.3679    3.8610   -2.0508 C.ar      1 <0>        -0.1153
     30 C21        -5.3913    3.9722   -2.9734 C.ar      1 <0>        -0.1129
     31 C22        -6.7012    3.7707   -2.5803 C.ar      1 <0>        -0.1129
     32 C23        -6.9877    3.4579   -1.2647 C.ar      1 <0>        -0.0880
     33 H2          0.3535    1.1451   -2.5545 H         1 <0>         0.0620
     34 H3          1.6473    0.8036   -1.3808 H         1 <0>         0.0589
     35 H4          0.4471   -0.4512   -1.7725 H         1 <0>         0.0606
     36 H5         -1.3367    0.9365   -0.7522 H         1 <0>         0.0707
     37 H6         -0.1365    2.1913   -0.3604 H         1 <0>         0.0676
     38 H7         -0.0982   -0.6872    0.6543 H         1 <0>         0.0796
     39 H8          1.1020    0.5675    1.0460 H         1 <0>         0.0769
     40 H9         -1.4619    1.5515    1.7056 H         1 <0>         0.4127
     41 H10        -0.8237   -0.9355    7.7156 H         1 <0>         0.1861
     42 H11         0.8486   -2.6518    8.0845 H         1 <0>         0.1643
     43 H12         2.2749   -3.4275    6.2041 H         1 <0>         0.1584
     44 H13         1.9797   -2.4490    3.9767 H         1 <0>         0.1708
     45 H14        -2.4414    2.7187    4.5442 H         1 <0>         0.1527
     46 H15        -6.3879    4.0309    2.9839 H         1 <0>         0.0759
     47 H16        -5.3667    4.8374    1.7694 H         1 <0>         0.0826
     48 H17        -7.1398    4.9057    1.6282 H         1 <0>         0.0623
     49 H18        -3.8558    3.4707   -0.0122 H         1 <0>         0.1051
     50 H19        -3.3446    4.0188   -2.3578 H         1 <0>         0.1213
     51 H20        -5.1675    4.2170   -4.0012 H         1 <0>         0.1235
     52 H21        -7.5008    3.8580   -3.3011 H         1 <0>         0.1261
     53 H22        -8.0111    3.3007   -0.9576 H         1 <0>         0.1260
@<TRIPOS>BOND
     1    1    2 1
     2    1   33 1
     3    1   34 1
     4    1   35 1
     5    2    3 1
     6    2   36 1
     7    2   37 1
     8    3    4 1
     9    3   38 1
    10    3   39 1
    11    4    5 1
    12    4   40 1
    13    5   15 1
    14    5    6 2
    15    6    7 1
    16    6   16 1
    17    7    8 2
    18    7    9 am
    19    9   14 1
    20    9   10 1
    21   10   11 2
    22   10   41 1
    23   11   12 1
    24   11   42 1
    25   12   13 2
    26   12   43 1
    27   13   14 1
    28   13   44 1
    29   14   15 2
    30   16   17 2
    31   16   45 1
    32   17   23 1
    33   17   18 1
    34   18   19 2
    35   18   20 am
    36   20   21 1
    37   20   24 1
    38   21   22 2
    39   21   23 1
    40   24   25 1
    41   24   26 1
    42   24   27 1
    43   26   46 1
    44   26   47 1
    45   26   48 1
    46   27   32 ar
    47   27   28 ar
    48   28   29 ar
    49   28   49 1
    50   29   30 ar
    51   29   50 1
    52   30   31 ar
    53   30   51 1
    54   31   32 ar
    55   31   52 1
    56   32   53 1
@<TRIPOS>MOLECULE
ZINC09276413
   57    60     0     0     0
SMALL
USER_CHARGES
N-[(4-chlorophenyl)methyl]-2-[5-[(4-methyl-1-piperidyl)sulfonyl]indol-1-yl]acetamide
@<TRIPOS>ATOM
      1 C1          0.0021   -0.0041    0.0020 C.3       1 <0>        -0.1482
      2 C2         -0.0187    1.5258    0.0104 C.3       1 <0>        -0.0897
      3 C3         -0.7604    2.0324   -1.2286 C.3       1 <0>        -0.1320
      4 C4         -0.8093    3.5633   -1.1991 C.3       1 <0>         0.1199
      5 N1          0.5603    4.0777   -1.0633 N.pl3     1 <0>        -0.9964
      6 C5          1.3930    3.5863    0.0430 C.3       1 <0>         0.1204
      7 C6          1.4172    2.0552   -0.0004 C.3       1 <0>        -0.1318
      8 S1          1.1539    5.1905   -2.1365 S.o2      1 <0>         2.6935
      9 O1          0.0297    5.8597   -2.6910 O.2       1 <0>        -0.9571
     10 O2          2.1989    5.8828   -1.4672 O.2       1 <0>        -0.9569
     11 C7          1.9065    4.2941   -3.4536 C.ar      1 <0>        -0.6990
     12 C8          3.2519    3.9599   -3.3786 C.ar      1 <0>        -0.0136
     13 C9          3.8585    3.2553   -4.3949 C.ar      1 <0>        -0.1403
     14 C10         3.1203    2.8828   -5.5138 C.ar      1 <0>         0.1539
     15 C11         1.7587    3.2284   -5.5873 C.ar      1 <0>        -0.1281
     16 C12         1.1628    3.9384   -4.5430 C.ar      1 <0>         0.0446
     17 C13         1.2756    2.7007   -6.8656 C.2       1 <0>        -0.1827
     18 C14         2.3174    2.0981   -7.4602 C.2       1 <0>         0.0546
     19 N2          3.4281    2.1968   -6.6672 N.pl3     1 <0>        -0.4681
     20 C15         4.7481    1.6530   -6.9962 C.3       1 <0>         0.0898
     21 C16         4.9008    0.2912   -6.3691 C.2       1 <0>         0.4919
     22 O3          3.9961   -0.1788   -5.7121 O.2       1 <0>        -0.5133
     23 N3          6.0427   -0.4044   -6.5384 N.am      1 <0>        -0.7245
     24 C17         6.1911   -1.7283   -5.9288 C.3       1 <0>         0.1628
     25 C18         7.5489   -2.2877   -6.2671 C.ar      1 <0>        -0.1100
     26 C19         7.7164   -3.0540   -7.4055 C.ar      1 <0>        -0.0865
     27 C20         8.9626   -3.5626   -7.7193 C.ar      1 <0>        -0.1114
     28 C21        10.0402   -3.3142   -6.8880 C.ar      1 <0>        -0.0254
     29 C22         9.8708   -2.5520   -5.7458 C.ar      1 <0>        -0.1111
     30 C23         8.6253   -2.0392   -5.4360 C.ar      1 <0>        -0.0864
     31 Cl1        11.6045   -3.9582   -7.2780 Cl        1 <0>        -0.0625
     32 H1          0.5293   -0.3651    0.8851 H         1 <0>         0.0548
     33 H2         -1.0205   -0.3814    0.0098 H         1 <0>         0.0552
     34 H3          0.5123   -0.3556   -0.8948 H         1 <0>         0.0540
     35 H4         -0.5285    1.8771    0.9075 H         1 <0>         0.0728
     36 H5         -0.2372    1.7024   -2.1261 H         1 <0>         0.0686
     37 H6         -1.7757    1.6360   -1.2323 H         1 <0>         0.0759
     38 H7         -1.4094    3.8934   -0.3512 H         1 <0>         0.0760
     39 H8         -1.2482    3.9328   -2.1260 H         1 <0>         0.0906
     40 H9          0.9725    3.9183    0.9922 H         1 <0>         0.0757
     41 H10         2.4072    3.9710   -0.0643 H         1 <0>         0.0903
     42 H11         1.9517    1.6750    0.8701 H         1 <0>         0.0753
     43 H12         1.9199    1.7249   -0.9095 H         1 <0>         0.0684
     44 H13         3.8277    4.2517   -2.5127 H         1 <0>         0.1399
     45 H14         4.9048    2.9967   -4.3255 H         1 <0>         0.1237
     46 H15         0.1176    4.2050   -4.5962 H         1 <0>         0.1395
     47 H16         0.2717    2.7809   -7.2555 H         1 <0>         0.1547
     48 H17         2.2839    1.6080   -8.4220 H         1 <0>         0.1725
     49 H18         4.8466    1.5678   -8.0784 H         1 <0>         0.1255
     50 H19         5.5212    2.3185   -6.6122 H         1 <0>         0.1192
     51 H20         6.7662   -0.0285   -7.0638 H         1 <0>         0.4042
     52 H21         6.0926   -1.6431   -4.8466 H         1 <0>         0.0810
     53 H22         5.4180   -2.3938   -6.3127 H         1 <0>         0.0810
     54 H23         6.8742   -3.2515   -8.0521 H         1 <0>         0.1347
     55 H24         9.0943   -4.1575   -8.6111 H         1 <0>         0.1375
     56 H25        10.7117   -2.3575   -5.0966 H         1 <0>         0.1377
     57 H26         8.4930   -1.4439   -4.5447 H         1 <0>         0.1349
@<TRIPOS>BOND
     1    1    2 1
     2    1   32 1
     3    1   33 1
     4    1   34 1
     5    2    7 1
     6    2    3 1
     7    2   35 1
     8    3    4 1
     9    3   36 1
    10    3   37 1
    11    4    5 1
    12    4   38 1
    13    4   39 1
    14    5    6 1
    15    5    8 1
    16    6    7 1
    17    6   40 1
    18    6   41 1
    19    7   42 1
    20    7   43 1
    21    8    9 2
    22    8   10 2
    23    8   11 1
    24   11   16 ar
    25   11   12 ar
    26   12   13 ar
    27   12   44 1
    28   13   14 ar
    29   13   45 1
    30   14   19 1
    31   14   15 ar
    32   15   16 ar
    33   15   17 1
    34   16   46 1
    35   17   18 2
    36   17   47 1
    37   18   19 1
    38   18   48 1
    39   19   20 1
    40   20   21 1
    41   20   49 1
    42   20   50 1
    43   21   22 2
    44   21   23 am
    45   23   24 1
    46   23   51 1
    47   24   25 1
    48   24   52 1
    49   24   53 1
    50   25   30 ar
    51   25   26 ar
    52   26   27 ar
    53   26   54 1
    54   27   28 ar
    55   27   55 1
    56   28   29 ar
    57   28   31 1
    58   29   30 ar
    59   29   56 1
    60   30   57 1
@<TRIPOS>MOLECULE
ZINC20997610
   60    64     0     0     0
SMALL
USER_CHARGES
2-(7-methyl-2-oxo-chromen-4-yl)-N-[2-[(2S)-2-(3-thienyl)-3,5-dihydro-2H-1,4-benzoxazepin-4-yl]ethyl]acetamide
@<TRIPOS>ATOM
      1 C1          5.6125    4.1850    4.8447 C.3       1 <0>        -0.1243
      2 C2          5.0836    3.5900    3.5651 C.ar      1 <0>        -0.0279
      3 C3          4.0391    2.6778    3.6122 C.ar      1 <0>        -0.1397
      4 C4          3.5463    2.1278    2.4623 C.ar      1 <0>        -0.0506
      5 C5          4.0953    2.4920    1.2289 C.ar      1 <0>        -0.1475
      6 C6          3.5940    1.9147   -0.0220 C.2       1 <0>         0.0495
      7 C7          4.1736    2.3049   -1.1854 C.2       1 <0>        -0.2378
      8 C8          5.2326    3.2383   -1.1632 C.2       1 <0>         0.5124
      9 O1          5.7442    3.5803   -2.2140 O.2       1 <0>        -0.4621
     10 O2          5.6901    3.7578   -0.0135 O.3       1 <0>        -0.2703
     11 C9          5.1573    3.4116    1.1776 C.ar      1 <0>         0.1530
     12 C10         5.6424    3.9581    2.3591 C.ar      1 <0>        -0.1366
     13 C11         2.4620    0.9199   -0.0165 C.3       1 <0>        -0.1167
     14 C12         1.1468    1.6555   -0.0000 C.2       1 <0>         0.5185
     15 O3          1.1304    2.8682    0.0067 O.2       1 <0>        -0.5252
     16 N1         -0.0111    0.9658    0.0074 N.am      1 <0>        -0.7401
     17 C13        -1.2896    1.6810    0.0173 C.3       1 <0>         0.1227
     18 C14        -2.4389    0.6711    0.0173 C.3       1 <0>         0.0503
     19 N2         -3.7209    1.3882    0.0272 N.3       1 <0>        -0.5381
     20 C15        -3.9143    2.1370   -1.2196 C.3       1 <0>         0.0917
     21 C16        -4.7682    3.3561   -0.9295 C.ar      1 <0>        -0.1042
     22 C17        -4.2225    4.6206   -1.0114 C.ar      1 <0>        -0.0909
     23 C18        -5.0163    5.7265   -0.7621 C.ar      1 <0>        -0.1251
     24 C19        -6.3500    5.5634   -0.4352 C.ar      1 <0>        -0.1041
     25 C20        -6.8948    4.2965   -0.3472 C.ar      1 <0>        -0.1303
     26 C21        -6.0963    3.1871   -0.5874 C.ar      1 <0>         0.1048
     27 O4         -6.6095    1.9335   -0.4545 O.3       1 <0>        -0.3270
     28 C22        -6.1183    1.1854    0.6646 C.3       1 <0>         0.1579
     29 H1         -5.9456    1.9206    1.4643 H         1 <0>         0.0794
     30 C23        -4.8273    0.4785    0.3121 C.3       1 <0>         0.0434
     31 C24        -7.1487    0.1626    1.0685 C.2       1 <0>        -0.1303
     32 C25        -7.3959   -0.0946    2.4039 C.2       1 <0>        -0.1485
     33 C26        -8.3293   -1.0207    2.7331 C.2       1 <0>        -0.1694
     34 S1         -8.8932   -1.5633    1.1285 S.3       1 <0>         0.0419
     35 C27        -7.8509   -0.5149    0.1276 C.2       1 <0>        -0.1363
     36 H2          5.0503    3.7780    5.6981 H         1 <0>         0.0737
     37 H3          5.4955    5.2784    4.8164 H         1 <0>         0.0797
     38 H4          6.6777    3.9329    4.9535 H         1 <0>         0.0797
     39 H5          3.6126    2.4001    4.5648 H         1 <0>         0.1350
     40 H6          2.7332    1.4183    2.5057 H         1 <0>         0.1327
     41 H7          3.8255    1.9029   -2.1254 H         1 <0>         0.1625
     42 H8          6.4550    4.6689    2.3334 H         1 <0>         0.1448
     43 H9          2.5203    0.2932   -0.9186 H         1 <0>         0.1208
     44 H10         2.5374    0.2835    0.8776 H         1 <0>         0.1185
     45 H11         0.0038   -0.1341    0.0060 H         1 <0>         0.4229
     46 H12        -1.3522    2.3077    0.9191 H         1 <0>         0.0786
     47 H13        -1.3607    2.3174   -0.8771 H         1 <0>         0.0690
     48 H14        -2.3763    0.0444   -0.8845 H         1 <0>         0.0455
     49 H15        -2.3678    0.0347    0.9117 H         1 <0>         0.0862
     50 H16        -2.9367    2.4517   -1.6137 H         1 <0>         0.0888
     51 H17        -4.4182    1.4959   -1.9580 H         1 <0>         0.0586
     52 H18        -3.1813    4.7468   -1.2690 H         1 <0>         0.1265
     53 H19        -4.5934    6.7184   -0.8227 H         1 <0>         0.1263
     54 H20        -6.9679    6.4291   -0.2476 H         1 <0>         0.1276
     55 H21        -7.9368    4.1703   -0.0928 H         1 <0>         0.1289
     56 H22        -5.0256   -0.1457   -0.5717 H         1 <0>         0.0478
     57 H23        -4.5626   -0.1654    1.1638 H         1 <0>         0.0910
     58 H24        -6.8533    0.4343    3.1735 H         1 <0>         0.1360
     59 H25        -8.6490   -1.3459    3.7121 H         1 <0>         0.1886
     60 H26        -7.7938   -0.4407   -0.9483 H         1 <0>         0.1875
@<TRIPOS>BOND
     1    1    2 1
     2    1   36 1
     3    1   37 1
     4    1   38 1
     5    2   12 ar
     6    2    3 ar
     7    3    4 ar
     8    3   39 1
     9    4    5 ar
    10    4   40 1
    11    5   11 ar
    12    5    6 1
    13    6    7 2
    14    6   13 1
    15    7    8 1
    16    7   41 1
    17    8    9 2
    18    8   10 1
    19   10   11 1
    20   11   12 ar
    21   12   42 1
    22   13   14 1
    23   13   43 1
    24   13   44 1
    25   14   15 2
    26   14   16 am
    27   16   17 1
    28   16   45 1
    29   17   18 1
    30   17   46 1
    31   17   47 1
    32   18   19 1
    33   18   48 1
    34   18   49 1
    35   19   30 1
    36   19   20 1
    37   20   21 1
    38   20   50 1
    39   20   51 1
    40   21   26 ar
    41   21   22 ar
    42   22   23 ar
    43   22   52 1
    44   23   24 ar
    45   23   53 1
    46   24   25 ar
    47   24   54 1
    48   25   26 ar
    49   25   55 1
    50   26   27 1
    51   27   28 1
    52   28   29 1
    53   28   30 1
    54   28   31 1
    55   30   56 1
    56   30   57 1
    57   31   35 2
    58   31   32 1
    59   32   33 2
    60   32   58 1
    61   33   34 1
    62   33   59 1
    63   34   35 1
    64   35   60 1
@<TRIPOS>MOLECULE
ZINC35008374
   47    49     0     0     0
SMALL
USER_CHARGES

@<TRIPOS>ATOM
      1 C1         -0.0844    1.6331    0.2028 C.3       1 <0>        -0.1606
      2 C2         -0.0019    0.1144    0.0365 C.3       1 <0>        -0.1335
      3 C3         -1.4141   -0.4741    0.0181 C.3       1 <0>         0.1957
      4 H1         -2.0029    0.0184   -0.7558 H         1 <0>         0.1341
      5 C4         -1.3390   -1.9511   -0.2714 C.2       1 <0>         0.3757
      6 N1         -0.6831   -2.3560   -1.3901 N.am      1 <0>        -0.6487
      7 H2         -0.2796   -1.6965   -1.9759 H         1 <0>         0.4194
      8 C5         -0.5872   -3.6713   -1.6946 C.2       1 <0>         0.5525
      9 O1         -0.0019   -4.0481   -2.6932 O.2       1 <0>        -0.5061
     10 C6         -1.2172   -4.6273   -0.7719 C.ar      1 <0>        -0.1968
     11 C7         -1.1763   -6.0023   -0.9940 C.ar      1 <0>        -0.0412
     12 C8         -1.7839   -6.8530   -0.0969 C.ar      1 <0>        -0.1346
     13 C9         -2.4344   -6.3513    1.0230 C.ar      1 <0>        -0.0713
     14 C10        -2.4866   -4.9963    1.2604 C.ar      1 <0>        -0.1064
     15 C11        -1.8778   -4.1136    0.3659 C.ar      1 <0>         0.1528
     16 N2         -1.9000   -2.7717    0.5639 N.2       1 <0>        -0.4973
     17 N3         -2.0478   -0.2636    1.3221 N.pl3     1 <0>        -0.9655
     18 C12        -1.3887   -0.7369    2.5418 C.3       1 <0>         0.1270
     19 C13        -0.4307    0.3403    3.0546 C.3       1 <0>        -0.1870
     20 S1         -3.5093    0.5092    1.4173 S.o2      1 <0>         2.6871
     21 O2         -3.5963    1.0536    2.7270 O.2       1 <0>        -0.9409
     22 O3         -3.6213    1.3116    0.2498 O.2       1 <0>        -0.9504
     23 C14        -4.7604   -0.7260    1.3012 C.ar      1 <0>        -0.6573
     24 C15        -5.2590   -1.0905    0.0644 C.ar      1 <0>        -0.0116
     25 C16        -6.2401   -2.0598   -0.0271 C.ar      1 <0>        -0.1109
     26 C17        -6.7231   -2.6651    1.1191 C.ar      1 <0>        -0.0364
     27 C18        -6.2239   -2.3001    2.3564 C.ar      1 <0>        -0.1102
     28 C19        -5.2391   -1.3345    2.4466 C.ar      1 <0>        -0.0068
     29 Br1        -8.0658   -3.9908    0.9945 Br        1 <0>        -0.0341
     30 H3          0.9216    2.0524    0.2159 H         1 <0>         0.0673
     31 H4         -0.6451    2.0598   -0.6289 H         1 <0>         0.0662
     32 H5         -0.5886    1.8691    1.1400 H         1 <0>         0.0636
     33 H6          0.5023   -0.1215   -0.9007 H         1 <0>         0.0790
     34 H7          0.5587   -0.3122    0.8682 H         1 <0>         0.0887
     35 H8         -0.6722   -6.3981   -1.8632 H         1 <0>         0.1382
     36 H9         -1.7545   -7.9193   -0.2660 H         1 <0>         0.1345
     37 H10        -2.9054   -7.0327    1.7160 H         1 <0>         0.1349
     38 H11        -2.9953   -4.6179    2.1347 H         1 <0>         0.1381
     39 H12        -2.1402   -0.9469    3.3028 H         1 <0>         0.0841
     40 H13        -0.8291   -1.6464    2.3229 H         1 <0>         0.0885
     41 H14         0.3745    0.4833    2.3340 H         1 <0>         0.0690
     42 H15        -0.9730    1.2769    3.1841 H         1 <0>         0.0659
     43 H16        -0.0113    0.0280    4.0110 H         1 <0>         0.0693
     44 H17        -4.8821   -0.6176   -0.8304 H         1 <0>         0.1433
     45 H18        -6.6298   -2.3442   -0.9933 H         1 <0>         0.1409
     46 H19        -6.6007   -2.7725    3.2515 H         1 <0>         0.1434
     47 H20        -4.8463   -1.0523    3.4122 H         1 <0>         0.1485
@<TRIPOS>BOND
     1    1    2 1
     2    1   30 1
     3    1   31 1
     4    1   32 1
     5    2    3 1
     6    2   33 1
     7    2   34 1
     8    3    4 1
     9    3    5 1
    10    3   17 1
    11    5   16 2
    12    5    6 1
    13    6    7 1
    14    6    8 am
    15    8    9 2
    16    8   10 1
    17   10   15 ar
    18   10   11 ar
    19   11   12 ar
    20   11   35 1
    21   12   13 ar
    22   12   36 1
    23   13   14 ar
    24   13   37 1
    25   14   15 ar
    26   14   38 1
    27   15   16 1
    28   17   18 1
    29   17   20 1
    30   18   19 1
    31   18   39 1
    32   18   40 1
    33   19   41 1
    34   19   42 1
    35   19   43 1
    36   20   21 2
    37   20   22 2
    38   20   23 1
    39   23   28 ar
    40   23   24 ar
    41   24   25 ar
    42   24   44 1
    43   25   26 ar
    44   25   45 1
    45   26   27 ar
    46   26   29 1
    47   27   28 ar
    48   27   46 1
    49   28   47 1
@<TRIPOS>MOLECULE
ZINC59290607
   61    64     0     0     0
SMALL
USER_CHARGES

@<TRIPOS>ATOM
      1 C1         -0.1407    1.5881   -1.3253 C.3       1 <0>        -0.1456
      2 C2         -0.0976    0.0628   -1.2138 C.3       1 <0>         0.0904
      3 H1          0.3349   -0.3564   -2.1223 H         1 <0>         0.0669
      4 C3         -1.5183   -0.4765   -1.0279 C.3       1 <0>         0.0234
      5 N1         -1.4634   -1.9341   -0.8443 N.3       1 <0>        -0.5381
      6 C4         -0.6359   -2.2817    0.3201 C.3       1 <0>         0.0199
      7 C5          0.7760   -1.7242    0.1207 C.3       1 <0>         0.0902
      8 H2          1.2342   -2.1960   -0.7486 H         1 <0>         0.0665
      9 O1          0.7011   -0.3113   -0.0880 O.3       1 <0>        -0.3797
     10 C6          1.6200   -2.0140    1.3635 C.3       1 <0>        -0.1458
     11 C7         -2.8131   -2.5001   -0.7186 C.3       1 <0>         0.0590
     12 C8         -2.7337   -4.0268   -0.7798 C.3       1 <0>        -0.1290
     13 C9         -4.1395   -4.6163   -0.6490 C.3       1 <0>         0.1212
     14 N2         -4.0635   -6.0782   -0.7076 N.am      1 <0>        -0.7184
     15 C10        -5.1874   -6.8158   -0.6122 C.2       1 <0>         0.6066
     16 O2         -6.2644   -6.2680   -0.4774 O.2       1 <0>        -0.5242
     17 C11        -5.1108   -8.2893   -0.6713 C.2       1 <0>        -0.0001
     18 C12        -6.1881   -9.1882   -0.5921 C.2       1 <0>        -0.1328
     19 C13        -5.6479  -10.4278   -0.6897 C.2       1 <0>         0.0174
     20 N3         -4.3125  -10.2707   -0.8231 N.pl3     1 <0>        -0.2294
     21 N4         -4.0157   -9.0168   -0.8146 N.2       1 <0>        -0.2608
     22 C14        -3.3885  -11.3156   -0.9563 C.ar      1 <0>         0.1352
     23 C15        -3.6759  -12.3979   -1.7778 C.ar      1 <0>        -0.0993
     24 C16        -2.7636  -13.4265   -1.9074 C.ar      1 <0>        -0.0925
     25 C17        -1.5645  -13.3801   -1.2202 C.ar      1 <0>        -0.0806
     26 C18        -1.2751  -12.3037   -0.4006 C.ar      1 <0>        -0.0780
     27 C19        -2.1817  -11.2683   -0.2718 C.ar      1 <0>        -0.0721
     28 Br1         0.3657  -12.2448    0.5377 Br        1 <0>        -0.0287
     29 C20        -6.4522  -11.7013   -0.6464 C.3       1 <0>        -0.0493
     30 C21        -7.8375  -11.3779   -0.0721 C.3       1 <0>        -0.1154
     31 C22        -8.4333  -10.1764   -0.8107 C.3       1 <0>        -0.1225
     32 C23        -7.6570   -8.9070   -0.4346 C.3       1 <0>        -0.0432
     33 H3          0.8712    1.9717   -1.4561 H         1 <0>         0.0673
     34 H4         -0.7507    1.8727   -2.1826 H         1 <0>         0.0733
     35 H5         -0.5733    2.0068   -0.4166 H         1 <0>         0.0628
     36 H6         -1.9705   -0.0158   -0.1496 H         1 <0>         0.0443
     37 H7         -2.1146   -0.2430   -1.9099 H         1 <0>         0.0871
     38 H8         -1.0740   -1.8498    1.2199 H         1 <0>         0.0440
     39 H9         -0.5880   -3.3658    0.4221 H         1 <0>         0.0878
     40 H10         1.6741   -3.0909    1.5229 H         1 <0>         0.0727
     41 H11         2.6250   -1.6169    1.2209 H         1 <0>         0.0674
     42 H12         1.1621   -1.5406    2.2321 H         1 <0>         0.0627
     43 H13        -3.2471   -2.1968    0.2342 H         1 <0>         0.0403
     44 H14        -3.4373   -2.1358   -1.5346 H         1 <0>         0.0815
     45 H15        -2.2998   -4.3302   -1.7326 H         1 <0>         0.0808
     46 H16        -2.1095   -4.3912    0.0361 H         1 <0>         0.0707
     47 H17        -4.5734   -4.3130    0.3038 H         1 <0>         0.0701
     48 H18        -4.7637   -4.2519   -1.4649 H         1 <0>         0.0725
     49 H19        -3.2042   -6.5152   -0.8151 H         1 <0>         0.4073
     50 H20        -4.6123  -12.4353   -2.3147 H         1 <0>         0.1412
     51 H21        -2.9870  -14.2684   -2.5459 H         1 <0>         0.1482
     52 H22        -0.8527  -14.1857   -1.3232 H         1 <0>         0.1444
     53 H23        -1.9536  -10.4258    0.3642 H         1 <0>         0.1451
     54 H24        -6.5572  -12.1038   -1.6539 H         1 <0>         0.0847
     55 H25        -5.9516  -12.4305   -0.0094 H         1 <0>         0.0814
     56 H26        -8.4919  -12.2408   -0.1957 H         1 <0>         0.0768
     57 H27        -7.7447  -11.1425    0.9882 H         1 <0>         0.0698
     58 H28        -8.3630  -10.3398   -1.8861 H         1 <0>         0.0656
     59 H29        -9.4796  -10.0592   -0.5288 H         1 <0>         0.0738
     60 H30        -7.8709   -8.6386    0.6000 H         1 <0>         0.0787
     61 H31        -7.9475   -8.0895   -1.0945 H         1 <0>         0.0863
@<TRIPOS>BOND
     1    1    2 1
     2    1   33 1
     3    1   34 1
     4    1   35 1
     5    2    3 1
     6    2    9 1
     7    2    4 1
     8    4    5 1
     9    4   36 1
    10    4   37 1
    11    5    6 1
    12    5   11 1
    13    6    7 1
    14    6   38 1
    15    6   39 1
    16    7    8 1
    17    7    9 1
    18    7   10 1
    19   10   40 1
    20   10   41 1
    21   10   42 1
    22   11   12 1
    23   11   43 1
    24   11   44 1
    25   12   13 1
    26   12   45 1
    27   12   46 1
    28   13   14 1
    29   13   47 1
    30   13   48 1
    31   14   15 am
    32   14   49 1
    33   15   16 2
    34   15   17 1
    35   17   21 2
    36   17   18 1
    37   18   32 1
    38   18   19 2
    39   19   20 1
    40   19   29 1
    41   20   21 1
    42   20   22 1
    43   22   27 ar
    44   22   23 ar
    45   23   24 ar
    46   23   50 1
    47   24   25 ar
    48   24   51 1
    49   25   26 ar
    50   25   52 1
    51   26   27 ar
    52   26   28 1
    53   27   53 1
    54   29   30 1
    55   29   54 1
    56   29   55 1
    57   30   31 1
    58   30   56 1
    59   30   57 1
    60   31   32 1
    61   31   58 1
    62   31   59 1
    63   32   60 1
    64   32   61 1
@<TRIPOS>MOLECULE
ZINC13172159
   45    48     0     0     0
SMALL
USER_CHARGES
5-chloro-4-[[2-(6,7-dihydro-5H-cyclopenta[f]benzofuran-3-yl)acetyl]amino]-2-methoxy-benzoic acid
@<TRIPOS>ATOM
      1 C1          4.0383   -1.1141    5.5465 C.3       1 <0>         0.0212
      2 O1          3.9928   -2.4694    5.9972 O.3       1 <0>        -0.2645
      3 C2          3.5737   -3.4015    5.1050 C.ar      1 <0>         0.1828
      4 C3          3.2137   -3.0231    3.8232 C.ar      1 <0>        -0.2313
      5 C4          2.7860   -3.9781    2.9112 C.ar      1 <0>         0.1900
      6 C5          2.7111   -5.3200    3.2824 C.ar      1 <0>        -0.1188
      7 C6          3.0715   -5.7081    4.5520 C.ar      1 <0>        -0.0100
      8 C7          3.5044   -4.7526    5.4786 C.ar      1 <0>        -0.1512
      9 C8          3.8849   -5.1629    6.8394 C.2       1 <0>         0.4941
     10 O2          4.2602   -4.3312    7.6424 O.co2     1 <0>        -0.6095
     11 Cl1         2.1676   -6.5056    2.1367 Cl        1 <0>        -0.0851
     12 N1          2.4244   -3.5932    1.6203 N.am      1 <0>        -0.6644
     13 C9          2.0043   -2.3343    1.3853 C.2       1 <0>         0.5091
     14 O3          1.8449   -1.5657    2.3098 O.2       1 <0>        -0.5024
     15 C10         1.7327   -1.8818   -0.0263 C.3       1 <0>        -0.0660
     16 C11         1.2787   -0.4449   -0.0145 C.2       1 <0>        -0.1616
     17 C12         0.0147   -0.0005   -0.0087 C.2       1 <0>         0.0258
     18 O4         -0.0038    1.3438    0.0018 O.3       1 <0>        -0.1912
     19 C13         1.2492    1.8421    0.0038 C.ar      1 <0>         0.0547
     20 C14         2.1323    0.7493   -0.0067 C.ar      1 <0>        -0.1085
     21 C15         3.5082    0.9645   -0.0077 C.ar      1 <0>        -0.0580
     22 C16         4.0022    2.2530    0.0020 C.ar      1 <0>        -0.1104
     23 C17         3.1314    3.3336    0.0131 C.ar      1 <0>        -0.0731
     24 C18         1.7646    3.1303    0.0138 C.ar      1 <0>        -0.0974
     25 C19         3.9235    4.6245    0.0226 C.3       1 <0>        -0.0787
     26 C20         5.3461    4.2298   -0.4265 C.3       1 <0>        -0.1197
     27 C21         5.4323    2.7499    0.0024 C.3       1 <0>        -0.0798
     28 H1          4.3895   -0.4737    6.3556 H         1 <0>         0.0964
     29 H2          4.7196   -1.0357    4.6993 H         1 <0>         0.0468
     30 H3          3.0406   -0.7992    5.2407 H         1 <0>         0.0537
     31 H4          3.2658   -1.9843    3.5324 H         1 <0>         0.1572
     32 H5          3.0168   -6.7490    4.8348 H         1 <0>         0.1521
     33 H6          2.4752   -4.2315    0.8917 H         1 <0>         0.4113
     34 H7          0.9534   -2.5055   -0.4642 H         1 <0>         0.1094
     35 H8          2.6440   -1.9701   -0.6178 H         1 <0>         0.1086
     36 H9         -0.8623   -0.6308   -0.0123 H         1 <0>         0.2076
     37 H10         4.1873    0.1247   -0.0165 H         1 <0>         0.1224
     38 H11         1.0948    3.9775    0.0224 H         1 <0>         0.1287
     39 H12         3.4906    5.3390   -0.6776 H         1 <0>         0.0770
     40 H13         3.9476    5.0460    1.0275 H         1 <0>         0.0837
     41 H14         5.4518    4.3266   -1.5071 H         1 <0>         0.0725
     42 H15         6.0956    4.8299    0.0895 H         1 <0>         0.0783
     43 H16         5.8601    2.6701    1.0018 H         1 <0>         0.0819
     44 H17         6.0297    2.1833   -0.7119 H         1 <0>         0.0755
     45 O5          3.8174   -6.4612    7.1955 O.co2     1 <0>        -0.7593
@<TRIPOS>BOND
     1    1    2 1
     2    1   28 1
     3    1   29 1
     4    1   30 1
     5    2    3 1
     6    3    8 ar
     7    3    4 ar
     8    4    5 ar
     9    4   31 1
    10    5    6 ar
    11    5   12 1
    12    6    7 ar
    13    6   11 1
    14    7    8 ar
    15    7   32 1
    16    8    9 1
    17    9   10 2
    18    9   45 1
    19   12   13 am
    20   12   33 1
    21   13   14 2
    22   13   15 1
    23   15   16 1
    24   15   34 1
    25   15   35 1
    26   16   20 1
    27   16   17 2
    28   17   18 1
    29   17   36 1
    30   18   19 1
    31   19   24 ar
    32   19   20 ar
    33   20   21 ar
    34   21   22 ar
    35   21   37 1
    36   22   27 1
    37   22   23 ar
    38   23   24 ar
    39   23   25 1
    40   24   38 1
    41   25   26 1
    42   25   39 1
    43   25   40 1
    44   26   27 1
    45   26   41 1
    46   26   42 1
    47   27   43 1
    48   27   44 1
@<TRIPOS>MOLECULE
ZINC32098315
   37    39     0     0     0
SMALL
USER_CHARGES
N-[5-chloro-2-[(5-methyl-2-thienyl)sulfonylamino]phenyl]furan-2-carboxamide
@<TRIPOS>ATOM
      1 C1          1.1788    6.0615    4.0448 C.3       1 <0>        -0.0727
      2 C2          1.3616    4.8409    3.1801 C.2       1 <0>        -0.1453
      3 C3          1.9465    3.6573    3.4868 C.2       1 <0>        -0.1860
      4 C4          2.0016    2.6673    2.5238 C.2       1 <0>        -0.0492
      5 C5          1.4690    2.9093    1.3010 C.2       1 <0>        -0.7025
      6 S1          0.8698    4.5811    1.4836 S.3       1 <0>         0.1351
      7 S2          1.3944    1.8513   -0.1060 S.o2      1 <0>         2.6098
      8 O1          2.4495    0.9103    0.0371 O.2       1 <0>        -0.9880
      9 O2          1.2753    2.6953   -1.2429 O.2       1 <0>        -1.0269
     10 N1         -0.0198    0.9962   -0.0011 N.2       1 <0>        -1.0496
     11 C6         -1.2462    1.6708    0.0141 C.ar      1 <0>         0.2285
     12 C7         -1.4152    2.8230   -0.7393 C.ar      1 <0>        -0.2133
     13 C8         -2.6287    3.4850   -0.7272 C.ar      1 <0>        -0.0816
     14 C9         -3.6742    3.0075    0.0434 C.ar      1 <0>        -0.0885
     15 C10        -3.5121    1.8623    0.8022 C.ar      1 <0>        -0.0850
     16 C11        -2.2994    1.1894    0.7913 C.ar      1 <0>         0.1005
     17 N2         -2.1331    0.0294    1.5585 N.am      1 <0>        -0.6357
     18 C12        -3.1671   -0.8174    1.7326 C.2       1 <0>         0.5915
     19 O3         -4.2657   -0.5353    1.2911 O.2       1 <0>        -0.5223
     20 C13        -2.9685   -2.0785    2.4538 C.2       1 <0>        -0.0607
     21 C14        -3.9251   -3.0216    2.6996 C.2       1 <0>        -0.1315
     22 C15        -3.2986   -4.0554    3.4131 C.2       1 <0>        -0.2272
     23 C16        -2.0036   -3.7026    3.5696 C.2       1 <0>        -0.0126
     24 O4         -1.8074   -2.5131    2.9859 O.3       1 <0>        -0.1595
     25 Cl1        -5.1930    3.8482    0.0585 Cl        1 <0>        -0.1040
     26 H1          1.6040    5.8718    5.0414 H         1 <0>         0.0781
     27 H2          0.1062    6.2858    4.1404 H         1 <0>         0.0784
     28 H3          1.6928    6.9178    3.5837 H         1 <0>         0.0767
     29 H4          2.3630    3.4901    4.4692 H         1 <0>         0.1299
     30 H5          2.4618    1.7150    2.7424 H         1 <0>         0.1383
     31 H6         -0.6000    3.2006   -1.3386 H         1 <0>         0.1579
     32 H7         -2.7600    4.3795   -1.3180 H         1 <0>         0.1179
     33 H8         -4.3297    1.4924    1.4032 H         1 <0>         0.1371
     34 H9         -1.1586   -0.1905    2.0189 H         1 <0>         0.4429
     35 H10        -4.9627   -2.9799    2.4028 H         1 <0>         0.1583
     36 H11        -3.7641   -4.9623    3.7698 H         1 <0>         0.1536
     37 H12        -1.2500   -4.2856    4.0780 H         1 <0>         0.2075
@<TRIPOS>BOND
     1    1    2 1
     2    1   26 1
     3    1   27 1
     4    1   28 1
     5    2    6 1
     6    2    3 2
     7    3    4 1
     8    3   29 1
     9    4    5 2
    10    4   30 1
    11    5    6 1
    12    5    7 1
    13    7    8 2
    14    7    9 2
    15    7   10 1
    16   10   11 1
    17   11   16 ar
    18   11   12 ar
    19   12   13 ar
    20   12   31 1
    21   13   14 ar
    22   13   32 1
    23   14   15 ar
    24   14   25 1
    25   15   16 ar
    26   15   33 1
    27   16   17 1
    28   17   18 am
    29   17   34 1
    30   18   19 2
    31   18   20 1
    32   20   24 1
    33   20   21 2
    34   21   22 1
    35   21   35 1
    36   22   23 2
    37   22   36 1
    38   23   24 1
    39   23   37 1
@<TRIPOS>MOLECULE
ZINC39887216
   48    50     0     0     0
SMALL
USER_CHARGES

@<TRIPOS>ATOM
      1 C1          1.0061    0.6049   -0.9779 C.3       1 <0>        -0.1474
      2 C2          0.0014   -0.0035    0.0026 C.3       1 <0>        -0.0806
      3 C3          0.7303   -0.5027    1.2235 C.ar      1 <0>        -0.0871
      4 C4          1.2086   -1.7997    1.2592 C.ar      1 <0>        -0.1147
      5 C5          1.8774   -2.2602    2.3764 C.ar      1 <0>        -0.0714
      6 C6          2.0693   -1.4190    3.4648 C.ar      1 <0>         0.1511
      7 C7          1.5877   -0.1168    3.4257 C.ar      1 <0>        -0.1205
      8 C8          0.9243    0.3390    2.3034 C.ar      1 <0>        -0.1173
      9 N1          2.7456   -1.8822    4.5976 N.pl3     1 <0>        -0.5697
     10 C9          2.0380   -2.0548    5.8707 C.3       1 <0>         0.4302
     11 H1          1.0739   -1.5488    5.8211 H         1 <0>         0.1119
     12 N2          2.8324   -1.4833    6.9597 N.am      1 <0>        -0.7436
     13 C10         4.1786   -1.4715    6.8940 C.2       1 <0>         0.6003
     14 O1          4.8332   -1.0333    7.8227 O.2       1 <0>        -0.5661
     15 C11         4.8498   -1.9892    5.6994 C.2       1 <0>        -0.3174
     16 C12         4.0824   -2.1888    4.5365 C.2       1 <0>         0.4490
     17 S1          4.8091   -2.8046    3.0541 S.3       1 <0>        -0.7831
     18 C13         6.2500   -2.2889    5.7148 C.1       1 <0>         0.3364
     19 N3          7.3608   -2.5267    5.7271 N.1       1 <0>        -0.4962
     20 C14         1.8205   -3.5237    6.1280 C.ar      1 <0>        -0.1183
     21 C15         1.6800   -4.3967    5.0653 C.ar      1 <0>        -0.0806
     22 C16         1.4803   -5.7450    5.2961 C.ar      1 <0>        -0.1717
     23 C17         1.4210   -6.2242    6.5949 C.ar      1 <0>         0.1033
     24 C18         1.5629   -5.3456    7.6646 C.ar      1 <0>         0.0921
     25 C19         1.7676   -3.9960    7.4262 C.ar      1 <0>        -0.1425
     26 O2          1.5054   -5.8111    8.9411 O.3       1 <0>        -0.3084
     27 C20         1.6592   -4.8518    9.9890 C.3       1 <0>         0.0260
     28 O3          1.2241   -7.5502    6.8237 O.3       1 <0>        -0.3086
     29 C21         1.0864   -8.3929    5.6778 C.3       1 <0>         0.0264
     30 H2          1.7312   -0.1537   -1.2725 H         1 <0>         0.0573
     31 H3          0.4789    0.9659   -1.8610 H         1 <0>         0.0531
     32 H4          1.5239    1.4358   -0.4988 H         1 <0>         0.0553
     33 H5         -0.7237    0.7551    0.2973 H         1 <0>         0.0672
     34 H6         -0.5164   -0.8344   -0.4765 H         1 <0>         0.0685
     35 H7          1.0587   -2.4534    0.4127 H         1 <0>         0.1199
     36 H8          2.2504   -3.2734    2.4037 H         1 <0>         0.1381
     37 H9          1.7350    0.5397    4.2706 H         1 <0>         0.1200
     38 H10         0.5531    1.3527    2.2708 H         1 <0>         0.1189
     39 H11         2.3858   -1.1094    7.7353 H         1 <0>         0.4010
     40 H12         1.7260   -4.0245    4.0525 H         1 <0>         0.1352
     41 H13         1.3701   -6.4248    4.4641 H         1 <0>         0.1348
     42 H14         1.8818   -3.3125    8.2546 H         1 <0>         0.1357
     43 H15         0.8707   -4.1029    9.9146 H         1 <0>         0.0529
     44 H16         1.5932   -5.3542   10.9541 H         1 <0>         0.0974
     45 H17         2.6309   -4.3665    9.8977 H         1 <0>         0.0567
     46 H18         1.9898   -8.3313    5.0709 H         1 <0>         0.0558
     47 H19         0.9349   -9.4229    6.0004 H         1 <0>         0.0971
     48 H20         0.2296   -8.0670    5.0881 H         1 <0>         0.0536
@<TRIPOS>BOND
     1    1    2 1
     2    1   30 1
     3    1   31 1
     4    1   32 1
     5    2    3 1
     6    2   33 1
     7    2   34 1
     8    3    8 ar
     9    3    4 ar
    10    4    5 ar
    11    4   35 1
    12    5    6 ar
    13    5   36 1
    14    6    7 ar
    15    6    9 1
    16    7    8 ar
    17    7   37 1
    18    8   38 1
    19    9   16 1
    20    9   10 1
    21   10   11 1
    22   10   12 1
    23   10   20 1
    24   12   13 am
    25   12   39 1
    26   13   14 2
    27   13   15 1
    28   15   16 2
    29   15   18 1
    30   16   17 1
    31   18   19 3
    32   20   25 ar
    33   20   21 ar
    34   21   22 ar
    35   21   40 1
    36   22   23 ar
    37   22   41 1
    38   23   24 ar
    39   23   28 1
    40   24   25 ar
    41   24   26 1
    42   25   42 1
    43   26   27 1
    44   27   43 1
    45   27   44 1
    46   27   45 1
    47   28   29 1
    48   29   46 1
    49   29   47 1
    50   29   48 1
@<TRIPOS>MOLECULE
ZINC51030573
   50    51     0     0     0
SMALL
USER_CHARGES

@<TRIPOS>ATOM
      1 C1         -2.5191    1.3713    1.2751 C.3       1 <0>        -0.1530
      2 C2         -2.5713   -0.1392    1.0369 C.3       1 <0>        -0.1165
      3 C3         -1.4758   -0.5373    0.0457 C.3       1 <0>        -0.0437
      4 H1         -0.5103   -0.1881    0.4117 H         1 <0>         0.0706
      5 C4         -1.7649    0.0975   -1.3160 C.3       1 <0>        -0.1451
      6 C5         -1.4470   -2.0374   -0.0952 C.ar      1 <0>        -0.1168
      7 C6         -2.5661   -2.7090   -0.5524 C.ar      1 <0>        -0.0963
      8 C7         -2.5430   -4.0837   -0.6827 C.ar      1 <0>        -0.1146
      9 C8         -1.3941   -4.7917   -0.3541 C.ar      1 <0>         0.1789
     10 C9         -0.2718   -4.1141    0.1048 C.ar      1 <0>        -0.1659
     11 C10        -0.2997   -2.7387    0.2274 C.ar      1 <0>        -0.1007
     12 N1         -1.3675   -6.1836   -0.4844 N.pl3     1 <0>        -0.6793
     13 C11        -2.0700   -6.7881   -1.4840 C.2       1 <0>         0.5439
     14 O1         -2.6976   -6.0413   -2.4130 O.3       1 <0>        -0.6231
     15 C12        -2.1390   -8.1782   -1.5449 C.2       1 <0>        -0.4447
     16 C13        -1.4718   -8.9721   -0.5573 C.1       1 <0>         0.3010
     17 N2         -0.9425   -9.6018    0.2261 N.1       1 <0>        -0.5460
     18 C14        -2.8943   -8.8281   -2.6196 C.2       1 <0>         0.4437
     19 O2         -3.4626   -8.1519   -3.4607 O.2       1 <0>        -0.4893
     20 C15        -2.9666  -10.2874   -2.6834 C.2       1 <0>        -0.1710
     21 C16        -3.6627  -10.8863   -3.6739 C.2       1 <0>        -0.0474
     22 C17        -3.7354  -12.3521   -3.7380 C.2       1 <0>        -0.1774
     23 C18        -4.9077  -13.1299   -3.8857 C.2       1 <0>         0.1000
     24 N3         -4.5601  -14.3869   -3.8996 N.2       1 <0>        -0.2830
     25 N4         -3.1704  -14.4773   -3.7638 N.pl3     1 <0>        -0.3638
     26 C19        -2.6686  -13.2327   -3.6713 C.2       1 <0>         0.1252
     27 Cl1        -0.9942  -12.8089   -3.4969 Cl        1 <0>         0.0083
     28 C20        -2.3924  -15.7182   -3.7339 C.3       1 <0>         0.0970
     29 C21        -6.3129  -12.5988   -4.0055 C.3       1 <0>        -0.0742
     30 H2         -3.2995    1.6549    1.9812 H         1 <0>         0.0505
     31 H3         -1.5449    1.6414    1.6825 H         1 <0>         0.0511
     32 H4         -2.6758    1.8936    0.3313 H         1 <0>         0.0556
     33 H5         -2.4147   -0.6615    1.9807 H         1 <0>         0.0615
     34 H6         -3.5455   -0.4093    0.6295 H         1 <0>         0.0635
     35 H7         -1.7858    1.1825   -1.2141 H         1 <0>         0.0539
     36 H8         -0.9845   -0.1862   -2.0221 H         1 <0>         0.0543
     37 H9         -2.7304   -0.2517   -1.6820 H         1 <0>         0.0568
     38 H10        -3.4592   -2.1579   -0.8074 H         1 <0>         0.1158
     39 H11        -3.4174   -4.6077   -1.0394 H         1 <0>         0.1416
     40 H12         0.6231   -4.6616    0.3611 H         1 <0>         0.1159
     41 H13         0.5742   -2.2107    0.5796 H         1 <0>         0.1143
     42 H14        -0.8491   -6.7190    0.1364 H         1 <0>         0.3990
     43 H15        -2.4635  -10.8861   -1.9386 H         1 <0>         0.1092
     44 H16        -4.1659  -10.2876   -4.4187 H         1 <0>         0.1354
     45 H17        -2.0966  -15.9861   -4.7483 H         1 <0>         0.0785
     46 H18        -1.5020  -15.5741   -3.1219 H         1 <0>         0.0885
     47 H19        -2.9996  -16.5177   -3.3094 H         1 <0>         0.0947
     48 H20        -6.5495  -12.4309   -5.0562 H         1 <0>         0.0818
     49 H21        -7.0119  -13.3229   -3.5870 H         1 <0>         0.0746
     50 H22        -6.3937  -11.6586   -3.4601 H         1 <0>         0.0866
@<TRIPOS>BOND
     1    1    2 1
     2    1   30 1
     3    1   31 1
     4    1   32 1
     5    2    3 1
     6    2   33 1
     7    2   34 1
     8    3    4 1
     9    3    5 1
    10    3    6 1
    11    5   35 1
    12    5   36 1
    13    5   37 1
    14    6   11 ar
    15    6    7 ar
    16    7    8 ar
    17    7   38 1
    18    8    9 ar
    19    8   39 1
    20    9   10 ar
    21    9   12 1
    22   10   11 ar
    23   10   40 1
    24   11   41 1
    25   12   13 1
    26   12   42 1
    27   13   14 1
    28   13   15 2
    29   15   16 1
    30   15   18 1
    31   16   17 3
    32   18   19 2
    33   18   20 1
    34   20   21 2
    35   20   43 1
    36   21   22 1
    37   21   44 1
    38   22   26 2
    39   22   23 1
    40   23   24 2
    41   23   29 1
    42   24   25 1
    43   25   26 1
    44   25   28 1
    45   26   27 1
    46   28   45 1
    47   28   46 1
    48   28   47 1
    49   29   48 1
    50   29   49 1
    51   29   50 1
@<TRIPOS>MOLECULE
ZINC04292259
   52    54     0     0     0
SMALL
USER_CHARGES

@<TRIPOS>ATOM
      1 C1         -0.2063    1.4937    0.0425 C.3       1 <0>        -0.1042
      2 C2         -0.0878   -0.0084    0.0174 C.ar      1 <0>        -0.0368
      3 C3         -0.1886   -0.6898   -1.1813 C.ar      1 <0>        -0.1339
      4 C4         -0.0800   -2.0675   -1.2043 C.ar      1 <0>        -0.1396
      5 C5          0.1300   -2.7641   -0.0286 C.ar      1 <0>        -0.1420
      6 C6          0.2316   -2.0828    1.1696 C.ar      1 <0>        -0.1106
      7 C7          0.1272   -0.7044    1.1920 C.ar      1 <0>        -0.0194
      8 C8          0.2433    0.0389    2.4978 C.3       1 <0>         0.1346
      9 H1          0.1178    1.1026    2.2953 H         1 <0>         0.0535
     10 C9          1.6357   -0.1779    3.0438 C.2       1 <0>        -0.3680
     11 C10         1.7708   -0.7576    4.3074 C.2       1 <0>         0.4289
     12 N1          3.0090   -0.9534    4.7992 N.2       1 <0>        -0.5247
     13 C11         4.0742   -0.6083    4.1093 C.2       1 <0>         0.3690
     14 N2          3.9800   -0.0408    2.8734 N.am      1 <0>        -0.6313
     15 C12         2.7657    0.1829    2.3224 C.2       1 <0>         0.5414
     16 O1          2.6652    0.6904    1.2161 O.2       1 <0>        -0.5524
     17 S1          5.6698   -0.8880    4.8026 S.3       1 <0>        -0.0504
     18 C13         5.3215   -1.6411    6.4157 C.3       1 <0>        -0.0830
     19 C14         6.6389   -1.9396    7.1343 C.3       1 <0>        -0.0820
     20 C15         6.3450   -2.4586    8.5432 C.3       1 <0>        -0.1419
     21 C16         7.4176   -2.9994    6.3524 C.3       1 <0>        -0.1535
     22 N3          0.6907   -1.1152    5.0223 N.2       1 <0>        -0.6294
     23 C17        -0.5493   -0.9686    4.6369 C.2       1 <0>         0.3056
     24 C18        -0.8914   -0.4103    3.4039 C.2       1 <0>        -0.3995
     25 C19        -2.1958   -0.2728    3.0293 C.2       1 <0>         0.4666
     26 O2         -2.5002    0.2712    1.8335 O.3       1 <0>        -0.6407
     27 O3         -3.1810   -0.6808    3.8548 O.3       1 <0>        -0.3384
     28 C20        -4.5238   -0.5064    3.3983 C.3       1 <0>         0.0392
     29 C21        -1.6519   -1.4223    5.5586 C.3       1 <0>        -0.1006
     30 H2          0.7889    1.9373    0.0111 H         1 <0>         0.0651
     31 H3         -0.7802    1.8274   -0.8220 H         1 <0>         0.0447
     32 H4         -0.7132    1.8030    0.9565 H         1 <0>         0.0755
     33 H5         -0.3526   -0.1457   -2.0997 H         1 <0>         0.1060
     34 H6         -0.1594   -2.5999   -2.1406 H         1 <0>         0.1052
     35 H7          0.2141   -3.8407   -0.0465 H         1 <0>         0.1043
     36 H8          0.3953   -2.6270    2.0880 H         1 <0>         0.1021
     37 H9          4.7273   -0.9532    7.0171 H         1 <0>         0.0995
     38 H10         4.7679   -2.5690    6.2715 H         1 <0>         0.0995
     39 H11         7.2319   -1.0274    7.1994 H         1 <0>         0.0791
     40 H12         5.7520   -3.3708    8.4780 H         1 <0>         0.0597
     41 H13         7.2836   -2.6712    9.0552 H         1 <0>         0.0598
     42 H14         5.7903   -1.7036    9.1002 H         1 <0>         0.0592
     43 H15         8.3561   -3.2120    6.8643 H         1 <0>         0.0575
     44 H16         6.8245   -3.9116    6.2872 H         1 <0>         0.0597
     45 H17         7.6269   -2.6296    5.3486 H         1 <0>         0.0626
     46 H18        -4.7119    0.5521    3.2185 H         1 <0>         0.0490
     47 H19        -4.6680   -1.0634    2.4725 H         1 <0>         0.0490
     48 H20        -5.2158   -0.8749    4.1555 H         1 <0>         0.0818
     49 H21        -1.2177   -1.8324    6.4704 H         1 <0>         0.0615
     50 H22        -2.2883   -0.5735    5.8091 H         1 <0>         0.0783
     51 H23        -2.2474   -2.1890    5.0630 H         1 <0>         0.0782
     52 H24         4.7844    0.2026    2.3890 H         1 <0>         0.4062
@<TRIPOS>BOND
     1    1    2 1
     2    1   30 1
     3    1   31 1
     4    1   32 1
     5    2    7 ar
     6    2    3 ar
     7    3    4 ar
     8    3   33 1
     9    4    5 ar
    10    4   34 1
    11    5    6 ar
    12    5   35 1
    13    6    7 ar
    14    6   36 1
    15    7    8 1
    16    8    9 1
    17    8   24 1
    18    8   10 1
    19   10   15 1
    20   10   11 2
    21   11   12 1
    22   11   22 1
    23   12   13 2
    24   13   14 1
    25   13   17 1
    26   14   15 am
    27   14   52 1
    28   15   16 2
    29   17   18 1
    30   18   19 1
    31   18   37 1
    32   18   38 1
    33   19   20 1
    34   19   21 1
    35   19   39 1
    36   20   40 1
    37   20   41 1
    38   20   42 1
    39   21   43 1
    40   21   44 1
    41   21   45 1
    42   22   23 2
    43   23   24 1
    44   23   29 1
    45   24   25 2
    46   25   26 1
    47   25   27 1
    48   27   28 1
    49   28   46 1
    50   28   47 1
    51   28   48 1
    52   29   49 1
    53   29   50 1
    54   29   51 1
@<TRIPOS>MOLECULE
ZINC13019493
   50    52     0     0     0
SMALL
USER_CHARGES
2-[3-(4-chlorophenyl)-5-[(1R)-2-[(2,5-dimethylphenyl)amino]-1-methyl-2-oxo-ethyl]sulfanyl-1,2,4-triazol-4-yl]acetic acid
@<TRIPOS>ATOM
      1 C1         -4.2405    2.9086   -9.4955 C.3       1 <0>        -0.1139
      2 C2         -4.8929    1.6706   -8.9362 C.ar      1 <0>        -0.0730
      3 C3         -5.5458    0.7919   -9.7814 C.ar      1 <0>        -0.1335
      4 C4         -6.1452   -0.3452   -9.2722 C.ar      1 <0>        -0.1002
      5 C5         -6.0886   -0.6100   -7.9176 C.ar      1 <0>        -0.1182
      6 C6         -5.4388    0.2731   -7.0657 C.ar      1 <0>         0.1500
      7 C7         -4.8377    1.4145   -7.5804 C.ar      1 <0>        -0.1198
      8 N1         -5.3848    0.0107   -5.6923 N.am      1 <0>        -0.6649
      9 C8         -4.3078    0.3893   -4.9758 C.2       1 <0>         0.5383
     10 O1         -3.4221    1.0279   -5.5038 O.2       1 <0>        -0.4967
     11 C9         -4.2042    0.0190   -3.5187 C.3       1 <0>        -0.1116
     12 H1         -5.1962    0.0383   -3.0674 H         1 <0>         0.1230
     13 C10        -3.6128   -1.3862   -3.3903 C.3       1 <0>        -0.1439
     14 S1         -3.1320    1.2047   -2.6697 S.3       1 <0>         0.0834
     15 C11        -3.3067    0.6411   -1.0095 C.2       1 <0>         0.1571
     16 N2         -4.0368   -0.3736   -0.6034 N.2       1 <0>        -0.2984
     17 N3         -3.9411   -0.5038    0.6715 N.2       1 <0>        -0.2732
     18 C12        -3.1402    0.4160    1.1570 C.2       1 <0>         0.2215
     19 N4         -2.7065    1.1753    0.0949 N.pl3     1 <0>        -0.4135
     20 C13        -1.7957    2.3219    0.1399 C.3       1 <0>         0.0391
     21 C14        -0.3792    1.8463   -0.0562 C.2       1 <0>         0.4543
     22 O2         -0.1537    0.6702   -0.2170 O.co2     1 <0>        -0.6052
     23 C15        -2.7740    0.6014    2.5773 C.ar      1 <0>        -0.0012
     24 C16        -1.6370    1.3362    2.9175 C.ar      1 <0>        -0.0919
     25 C17        -1.3029    1.5094    4.2445 C.ar      1 <0>        -0.1034
     26 C18        -2.0873    0.9479    5.2379 C.ar      1 <0>        -0.0270
     27 C19        -3.2135    0.2135    4.9064 C.ar      1 <0>        -0.1132
     28 C20        -3.5605    0.0374    3.5830 C.ar      1 <0>        -0.0679
     29 Cl1        -1.6570    1.1651    6.9056 Cl        1 <0>        -0.0738
     30 C21        -6.7369   -1.8529   -7.3643 C.3       1 <0>        -0.1153
     31 H2         -3.2081    2.6853   -9.7645 H         1 <0>         0.0720
     32 H3         -4.7840    3.2369  -10.3815 H         1 <0>         0.0653
     33 H4         -4.2576    3.6989   -8.7451 H         1 <0>         0.0674
     34 H5         -5.5879    0.9946  -10.8414 H         1 <0>         0.1214
     35 H6         -6.6540   -1.0296   -9.9348 H         1 <0>         0.1245
     36 H7         -4.3274    2.1009   -6.9209 H         1 <0>         0.1439
     37 H8         -6.1224   -0.4436   -5.2559 H         1 <0>         0.4131
     38 H9         -2.6207   -1.4055   -3.8416 H         1 <0>         0.0726
     39 H10        -3.5378   -1.6540   -2.3364 H         1 <0>         0.0960
     40 H11        -4.2584   -2.1002   -3.9016 H         1 <0>         0.0669
     41 H12        -1.8822    2.8169    1.1072 H         1 <0>         0.1097
     42 H13        -2.0561    3.0241   -0.6521 H         1 <0>         0.1051
     43 H14        -1.0224    1.7714    2.1434 H         1 <0>         0.1476
     44 H15        -0.4257    2.0812    4.5091 H         1 <0>         0.1404
     45 H16        -3.8211   -0.2227    5.6855 H         1 <0>         0.1386
     46 H17        -4.4388   -0.5359    3.3256 H         1 <0>         0.1444
     47 H18        -7.7711   -1.6353   -7.0975 H         1 <0>         0.0702
     48 H19        -6.7140   -2.6406   -8.1173 H         1 <0>         0.0705
     49 H20        -6.1944   -2.1817   -6.4779 H         1 <0>         0.0647
     50 O3          0.6313    2.7298   -0.0577 O.co2     1 <0>        -0.7417
@<TRIPOS>BOND
     1    1    2 1
     2    1   31 1
     3    1   32 1
     4    1   33 1
     5    2    7 ar
     6    2    3 ar
     7    3    4 ar
     8    3   34 1
     9    4    5 ar
    10    4   35 1
    11    5    6 ar
    12    5   30 1
    13    6    7 ar
    14    6    8 1
    15    7   36 1
    16    8    9 am
    17    8   37 1
    18    9   10 2
    19    9   11 1
    20   11   12 1
    21   11   13 1
    22   11   14 1
    23   13   38 1
    24   13   39 1
    25   13   40 1
    26   14   15 1
    27   15   19 1
    28   15   16 2
    29   16   17 1
    30   17   18 2
    31   18   19 1
    32   18   23 1
    33   19   20 1
    34   20   21 1
    35   20   41 1
    36   20   42 1
    37   21   22 2
    38   21   50 1
    39   23   28 ar
    40   23   24 ar
    41   24   25 ar
    42   24   43 1
    43   25   26 ar
    44   25   44 1
    45   26   27 ar
    46   26   29 1
    47   27   28 ar
    48   27   45 1
    49   28   46 1
    50   30   47 1
    51   30   48 1
    52   30   49 1
@<TRIPOS>MOLECULE
ZINC20468255
   60    63     0     0     0
SMALL
USER_CHARGES
(1S,2S,3R,4R)-3-[[4-(4-tert-butylphenyl)-3-methoxycarbonyl-2-thienyl]carbamoyl]norbornane-2-carboxylic acid
@<TRIPOS>ATOM
      1 C1         10.8749    4.5586    5.5364 C.3       1 <0>        -0.1392
      2 C2          9.8596    3.5042    5.9815 C.3       1 <0>        -0.0284
      3 C3          9.2610    3.9097    7.3299 C.3       1 <0>        -0.1456
      4 C4         10.5581    2.1500    6.1201 C.3       1 <0>        -0.1396
      5 C5          8.7610    3.4000    4.9552 C.ar      1 <0>        -0.0747
      6 C6          9.0657    3.0445    3.6535 C.ar      1 <0>        -0.1157
      7 C7          8.0639    2.9475    2.7093 C.ar      1 <0>        -0.0998
      8 C8          6.7426    3.2091    3.0695 C.ar      1 <0>        -0.0276
      9 C9          6.4425    3.5730    4.3815 C.ar      1 <0>        -0.1088
     10 C10         7.4518    3.6607    5.3184 C.ar      1 <0>        -0.1196
     11 C11         5.6621    3.1066    2.0601 C.2       1 <0>        -0.0263
     12 C12         5.7549    3.7202    0.8528 C.2       1 <0>        -0.2587
     13 S1          4.2259    3.2826    0.0522 S.3       1 <0>         0.2808
     14 C13         3.5073    2.3188    1.2976 C.2       1 <0>         0.1386
     15 C14         4.4506    2.3506    2.3161 C.2       1 <0>        -0.2582
     16 C15         4.2353    1.6525    3.5835 C.2       1 <0>         0.5464
     17 O1          4.6037    0.5005    3.7137 O.2       1 <0>        -0.5026
     18 O2          3.6280    2.2863    4.6079 O.3       1 <0>        -0.3511
     19 C16         3.4476    1.5322    5.8356 C.3       1 <0>         0.0283
     20 N1          2.2807    1.6744    1.2839 N.am      1 <0>        -0.6365
     21 C17         1.4865    1.7601    0.1983 C.2       1 <0>         0.5293
     22 O3          1.8823    2.3246   -0.7995 O.2       1 <0>        -0.4448
     23 C18         0.1068    1.1545    0.2243 C.3       1 <0>        -0.0744
     24 H1         -0.0910    0.9301    1.2829 H         1 <0>         0.0751
     25 C19         0.0475   -0.1025   -0.6964 C.3       1 <0>        -0.1032
     26 H2          0.4818   -1.0168   -0.2657 H         1 <0>         0.0942
     27 C20         0.6895    0.3658   -2.0381 C.3       1 <0>        -0.1433
     28 C21        -0.3425    1.3437   -2.6448 C.3       1 <0>        -0.1355
     29 C22        -1.5109    1.3742   -1.6126 C.3       1 <0>        -0.0598
     30 H3         -2.4622    1.7710   -1.9967 H         1 <0>         0.0942
     31 C23        -1.4726   -0.1043   -1.0873 C.3       1 <0>        -0.1150
     32 C24        -0.9235    2.1349   -0.3813 C.3       1 <0>        -0.1276
     33 H4         -1.6868    2.4546    0.3434 H         1 <0>         0.0775
     34 C25        -0.2437    3.4057   -0.8216 C.2       1 <0>         0.4791
     35 O4         -0.4410    3.8436   -1.9303 O.co2     1 <0>        -0.6257
     36 O5          0.5810    4.0513    0.0180 O.co2     1 <0>        -0.7576
     37 H5         11.3052    4.2670    4.5670 H         1 <0>         0.0573
     38 H6         11.6768    4.6347    6.2855 H         1 <0>         0.0565
     39 H7         10.3726    5.5321    5.4367 H         1 <0>         0.0571
     40 H8          8.5310    3.1516    7.6499 H         1 <0>         0.0585
     41 H9          8.7587    4.8833    7.2302 H         1 <0>         0.0596
     42 H10        10.0629    3.9858    8.0790 H         1 <0>         0.0566
     43 H11         9.8281    1.3920    6.4401 H         1 <0>         0.0563
     44 H12        11.3600    2.2261    6.8692 H         1 <0>         0.0567
     45 H13        10.9884    1.8585    5.1506 H         1 <0>         0.0573
     46 H14        10.0895    2.8421    3.3756 H         1 <0>         0.1202
     47 H15         8.3029    2.6699    1.6934 H         1 <0>         0.1242
     48 H16         5.4214    3.7812    4.6652 H         1 <0>         0.1281
     49 H17         7.2199    3.9379    6.3362 H         1 <0>         0.1248
     50 H18         6.5617    4.3278    0.4702 H         1 <0>         0.1836
     51 H19         2.9437    2.1630    6.5827 H         1 <0>         0.1012
     52 H20         4.4291    1.2197    6.2215 H         1 <0>         0.0615
     53 H21         2.8333    0.6426    5.6326 H         1 <0>         0.0619
     54 H22         1.9551    1.0929    2.1590 H         1 <0>         0.4297
     55 H23         1.6499    0.8608   -1.8319 H         1 <0>         0.0882
     56 H24         0.8582   -0.5057   -2.6877 H         1 <0>         0.0462
     57 H25         0.1197    2.3342   -2.7687 H         1 <0>         0.1234
     58 H26        -0.6720    0.9677   -3.6246 H         1 <0>         0.0401
     59 H27        -1.6562   -0.8833   -1.8419 H         1 <0>         0.0652
     60 H28        -2.0807   -0.3088   -0.1938 H         1 <0>         0.0617
@<TRIPOS>BOND
     1    1    2 1
     2    1   37 1
     3    1   38 1
     4    1   39 1
     5    2    3 1
     6    2    4 1
     7    2    5 1
     8    3   40 1
     9    3   41 1
    10    3   42 1
    11    4   43 1
    12    4   44 1
    13    4   45 1
    14    5   10 ar
    15    5    6 ar
    16    6    7 ar
    17    6   46 1
    18    7    8 ar
    19    7   47 1
    20    8    9 ar
    21    8   11 1
    22    9   10 ar
    23    9   48 1
    24   10   49 1
    25   11   15 1
    26   11   12 2
    27   12   13 1
    28   12   50 1
    29   13   14 1
    30   14   15 2
    31   14   20 1
    32   15   16 1
    33   16   17 2
    34   16   18 1
    35   18   19 1
    36   19   51 1
    37   19   52 1
    38   19   53 1
    39   20   21 am
    40   20   54 1
    41   21   22 2
    42   21   23 1
    43   23   24 1
    44   23   32 1
    45   23   25 1
    46   25   26 1
    47   25   31 1
    48   25   27 1
    49   27   28 1
    50   27   55 1
    51   27   56 1
    52   28   29 1
    53   28   57 1
    54   28   58 1
    55   29   30 1
    56   29   31 1
    57   29   32 1
    58   31   59 1
    59   31   60 1
    60   32   33 1
    61   32   34 1
    62   34   35 2
    63   34   36 1
@<TRIPOS>MOLECULE
ZINC35694143
   53    56     0     0     0
SMALL
USER_CHARGES

@<TRIPOS>ATOM
      1 C1          0.0296    1.7736   -0.0159 C.3       1 <0>        -0.0925
      2 C2          0.0426    0.2671    0.0179 C.2       1 <0>         0.3082
      3 C3         -1.1508   -0.4290    0.0425 C.2       1 <0>        -0.3994
      4 C4         -1.0854   -1.9396    0.0754 C.3       1 <0>         0.2652
      5 H1         -1.6254   -2.3179   -0.7926 H         1 <0>         0.0775
      6 N1          0.2669   -2.5586    0.0787 N.pl3     1 <0>        -0.5139
      7 C5          0.5638   -3.9067    0.1059 C.2       1 <0>         0.2289
      8 C6          1.8676   -4.2616    0.1033 C.2       1 <0>        -0.3027
      9 S1          2.6810   -2.6769    0.0623 S.3       1 <0>         0.1409
     10 C7          1.3228   -1.6910    0.0514 C.2       1 <0>         0.3313
     11 N2          1.1964   -0.3803    0.0183 N.2       1 <0>        -0.5929
     12 C8         -0.5007   -4.9199    0.1369 C.2       1 <0>        -0.4666
     13 C9         -0.1882   -6.2204    0.2956 C.2       1 <0>         0.5017
     14 O1          1.1104   -6.6076    0.3166 O.3       1 <0>        -0.7017
     15 N3         -1.1937   -7.1617    0.4372 N.pl3     1 <0>        -0.7508
     16 C10        -0.8538   -8.5763    0.6098 C.3       1 <0>         0.1793
     17 C11        -2.1190   -9.3846    0.7402 C.ar      1 <0>        -0.1022
     18 C12        -2.6761   -9.5991    1.9871 C.ar      1 <0>        -0.0740
     19 C13        -3.8366  -10.3399    2.1078 C.ar      1 <0>        -0.1561
     20 C14        -4.4412  -10.8673    0.9794 C.ar      1 <0>         0.0927
     21 C15        -3.8822  -10.6517   -0.2689 C.ar      1 <0>        -0.1564
     22 C16        -2.7247   -9.9062   -0.3877 C.ar      1 <0>        -0.0747
     23 F1         -5.5754  -11.5919    1.0962 F         1 <0>        -0.1438
     24 C17        -1.8125   -2.4086    1.3093 C.ar      1 <0>        -0.1071
     25 C18        -3.0615   -2.9898    1.1968 C.ar      1 <0>        -0.0534
     26 C19        -3.7286   -3.4200    2.3283 C.ar      1 <0>        -0.1363
     27 C20        -3.1475   -3.2698    3.5739 C.ar      1 <0>        -0.0934
     28 C21        -1.8987   -2.6895    3.6888 C.ar      1 <0>        -0.1620
     29 C22        -1.2272   -2.2628    2.5553 C.ar      1 <0>         0.1208
     30 F2         -0.0041   -1.6997    2.6660 F         1 <0>        -0.1370
     31 C23        -2.3797    0.2419    0.0375 C.2       1 <0>         0.5352
     32 O2         -2.4106    1.4576    0.1178 O.2       1 <0>        -0.5496
     33 O3         -3.5316   -0.4586   -0.0564 O.3       1 <0>        -0.3593
     34 C24        -4.7484    0.2906   -0.0556 C.3       1 <0>         0.0416
     35 H2          1.0541    2.1454   -0.0368 H         1 <0>         0.0646
     36 H3         -0.4982    2.1125   -0.9073 H         1 <0>         0.0836
     37 H4         -0.4763    2.1526    0.8721 H         1 <0>         0.0884
     38 H5          2.3036   -5.2496    0.1220 H         1 <0>         0.2376
     39 H6         -1.5334   -4.6215    0.0324 H         1 <0>         0.0874
     40 H7         -2.1232   -6.8846    0.4222 H         1 <0>         0.3859
     41 H8         -0.2890   -8.9225   -0.2558 H         1 <0>         0.0621
     42 H9         -0.2507   -8.6978    1.5095 H         1 <0>         0.0619
     43 H10        -2.2042   -9.1880    2.8672 H         1 <0>         0.1340
     44 H11        -4.2714  -10.5077    3.0821 H         1 <0>         0.1335
     45 H12        -4.3528  -11.0629   -1.1498 H         1 <0>         0.1335
     46 H13        -2.2909   -9.7342   -1.3618 H         1 <0>         0.1342
     47 H14        -3.5166   -3.1073    0.2244 H         1 <0>         0.1280
     48 H15        -4.7047   -3.8737    2.2395 H         1 <0>         0.1234
     49 H16        -3.6699   -3.6057    4.4574 H         1 <0>         0.1248
     50 H17        -1.4451   -2.5720    4.6618 H         1 <0>         0.1271
     51 H18        -4.8253    0.8577    0.8720 H         1 <0>         0.0511
     52 H19        -4.7531    0.9768   -0.9025 H         1 <0>         0.0514
     53 H20        -5.5950   -0.3913   -0.1358 H         1 <0>         0.0897
@<TRIPOS>BOND
     1    1    2 1
     2    1   35 1
     3    1   36 1
     4    1   37 1
     5    2   11 1
     6    2    3 2
     7    3    4 1
     8    3   31 1
     9    4    5 1
    10    4    6 1
    11    4   24 1
    12    6   10 1
    13    6    7 1
    14    7    8 2
    15    7   12 1
    16    8    9 1
    17    8   38 1
    18    9   10 1
    19   10   11 2
    20   12   13 2
    21   12   39 1
    22   13   14 1
    23   13   15 1
    24   15   16 1
    25   15   40 1
    26   16   17 1
    27   16   41 1
    28   16   42 1
    29   17   22 ar
    30   17   18 ar
    31   18   19 ar
    32   18   43 1
    33   19   20 ar
    34   19   44 1
    35   20   21 ar
    36   20   23 1
    37   21   22 ar
    38   21   45 1
    39   22   46 1
    40   24   29 ar
    41   24   25 ar
    42   25   26 ar
    43   25   47 1
    44   26   27 ar
    45   26   48 1
    46   27   28 ar
    47   27   49 1
    48   28   29 ar
    49   28   50 1
    50   29   30 1
    51   31   32 2
    52   31   33 1
    53   33   34 1
    54   34   51 1
    55   34   52 1
    56   34   53 1
@<TRIPOS>MOLECULE
ZINC02312328
   54    56     0     0     0
SMALL
USER_CHARGES

@<TRIPOS>ATOM
      1 C1          0.0318    1.4835    0.0102 C.3       1 <0>        -0.1093
      2 C2          0.0411   -0.0235    0.0013 C.ar      1 <0>        -0.0972
      3 C3          0.0385   -0.7076   -1.1999 C.ar      1 <0>        -0.1271
      4 C4          0.0471   -2.0899   -1.2080 C.ar      1 <0>        -0.1111
      5 C5          0.0588   -2.7881   -0.0150 C.ar      1 <0>        -0.0737
      6 C6          0.0623   -2.1039    1.1862 C.ar      1 <0>        -0.0988
      7 C7          0.0581   -0.7216    1.1943 C.ar      1 <0>        -0.1195
      8 C8          0.0671   -4.2950   -0.0239 C.3       1 <0>         0.0606
      9 H1          0.0624   -4.6539   -1.0531 H         1 <0>         0.0928
     10 C9          1.3211   -4.8048    0.6909 C.3       1 <0>        -0.1147
     11 H2          2.1921   -4.2572    0.3309 H         1 <0>         0.1254
     12 C10         1.1756   -4.5960    2.1743 C.2       1 <0>         0.4800
     13 N1          0.0192   -4.6956    2.7595 N.2       1 <0>        -0.6595
     14 C11        -1.1070   -4.9867    2.0662 C.2       1 <0>         0.2268
     15 C12        -1.1538   -4.8111    0.6966 C.2       1 <0>        -0.2462
     16 C13        -2.3476   -5.1159   -0.0333 C.1       1 <0>         0.2933
     17 N2         -3.2946   -5.3577   -0.6123 N.1       1 <0>        -0.4864
     18 S1         -2.5250   -5.5947    2.9172 S.3       1 <0>        -0.0276
     19 C14        -2.0017   -5.6576    4.6529 C.3       1 <0>        -0.1348
     20 C15        -3.1374   -6.1681    5.5018 C.2       1 <0>         0.5331
     21 O1         -4.1957   -6.4607    4.9866 O.2       1 <0>        -0.5034
     22 N3         -2.9771   -6.2995    6.8335 N.am      1 <0>        -0.6723
     23 C16        -4.0595   -6.6806    7.6343 C.ar      1 <0>         0.1442
     24 C17        -4.1967   -6.1579    8.9135 C.ar      1 <0>        -0.1412
     25 C18        -5.2662   -6.5361    9.7014 C.ar      1 <0>        -0.1038
     26 C19        -6.1997   -7.4343    9.2176 C.ar      1 <0>        -0.1062
     27 C20        -6.0656   -7.9569    7.9445 C.ar      1 <0>        -0.1026
     28 C21        -5.0018   -7.5780    7.1493 C.ar      1 <0>        -0.1165
     29 C22        -7.3654   -7.8448   10.0800 C.3       1 <0>        -0.1112
     30 O2          2.2634   -4.3002    2.9087 O.3       1 <0>        -0.6330
     31 C23         1.4988   -6.2739    0.4061 C.2       1 <0>         0.4784
     32 O3          0.7046   -6.8537   -0.2960 O.2       1 <0>        -0.4958
     33 O4          2.5395   -6.9385    0.9326 O.3       1 <0>        -0.3428
     34 C24         2.6460   -8.3290    0.6209 C.3       1 <0>         0.0339
     35 H3          1.0571    1.8532    0.0015 H         1 <0>         0.0654
     36 H4         -0.4936    1.8488   -0.8722 H         1 <0>         0.0610
     37 H5         -0.4749    1.8384    0.9077 H         1 <0>         0.0623
     38 H6          0.0294   -0.1622   -2.1320 H         1 <0>         0.1157
     39 H7          0.0443   -2.6244   -2.1465 H         1 <0>         0.1181
     40 H8          0.0711   -2.6494    2.1183 H         1 <0>         0.1423
     41 H9          0.0646   -0.1871    2.1327 H         1 <0>         0.1169
     42 H10        -1.1462   -6.3260    4.7505 H         1 <0>         0.1226
     43 H11        -1.7212   -4.6578    4.9843 H         1 <0>         0.1269
     44 H12        -2.1114   -6.1299    7.2369 H         1 <0>         0.4144
     45 H13        -3.4678   -5.4566    9.2920 H         1 <0>         0.1260
     46 H14        -5.3733   -6.1302   10.6964 H         1 <0>         0.1239
     47 H15        -6.7962   -8.6585    7.5697 H         1 <0>         0.1238
     48 H16        -4.9004   -7.9827    6.1531 H         1 <0>         0.1406
     49 H17        -8.2002   -7.1648    9.9102 H         1 <0>         0.0679
     50 H18        -7.6665   -8.8607    9.8244 H         1 <0>         0.0644
     51 H19        -7.0726   -7.8057   11.1293 H         1 <0>         0.0638
     52 H20         1.7565   -8.8499    0.9751 H         1 <0>         0.0569
     53 H21         2.7346   -8.4537   -0.4583 H         1 <0>         0.0562
     54 H22         3.5283   -8.7440    1.1083 H         1 <0>         0.0971
@<TRIPOS>BOND
     1    1    2 1
     2    1   35 1
     3    1   36 1
     4    1   37 1
     5    2    7 ar
     6    2    3 ar
     7    3    4 ar
     8    3   38 1
     9    4    5 ar
    10    4   39 1
    11    5    6 ar
    12    5    8 1
    13    6    7 ar
    14    6   40 1
    15    7   41 1
    16    8    9 1
    17    8   15 1
    18    8   10 1
    19   10   11 1
    20   10   12 1
    21   10   31 1
    22   12   13 2
    23   12   30 1
    24   13   14 1
    25   14   15 2
    26   14   18 1
    27   15   16 1
    28   16   17 3
    29   18   19 1
    30   19   20 1
    31   19   42 1
    32   19   43 1
    33   20   21 2
    34   20   22 am
    35   22   23 1
    36   22   44 1
    37   23   28 ar
    38   23   24 ar
    39   24   25 ar
    40   24   45 1
    41   25   26 ar
    42   25   46 1
    43   26   27 ar
    44   26   29 1
    45   27   28 ar
    46   27   47 1
    47   28   48 1
    48   29   49 1
    49   29   50 1
    50   29   51 1
    51   31   32 2
    52   31   33 1
    53   33   34 1
    54   34   52 1
    55   34   53 1
    56   34   54 1
@<TRIPOS>MOLECULE
ZINC16933690
   54    56     0     0     0
SMALL
USER_CHARGES

@<TRIPOS>ATOM
      1 C1         -0.5505   -1.4931    0.2657 C.3       1 <0>        -0.1494
      2 C2         -0.4122   -2.8353    0.9870 C.3       1 <0>        -0.1028
      3 C3          0.4588   -2.6576    2.2323 C.3       1 <0>         0.0110
      4 H1          1.4142   -2.2168    1.9476 H         1 <0>         0.0697
      5 C4          0.6966   -4.0000    2.8747 C.2       1 <0>         0.4797
      6 O1          1.3343   -4.8544    2.2833 O.co2     1 <0>        -0.6879
      7 O2          0.2513   -4.2315    3.9858 O.co2     1 <0>        -0.6708
      8 O3         -0.2055   -1.7969    3.1595 O.3       1 <0>        -0.2847
      9 C5          0.5681   -1.1713    4.0828 C.ar      1 <0>         0.2172
     10 C6          1.9415   -1.3529    4.0783 C.ar      1 <0>        -0.2109
     11 C7          2.7284   -0.7156    5.0187 C.ar      1 <0>        -0.0461
     12 C8          2.1537    0.1089    5.9724 C.ar      1 <0>        -0.1761
     13 C9          0.7898    0.3028    5.9933 C.ar      1 <0>        -0.0519
     14 C10        -0.0192   -0.3320    5.0437 C.ar      1 <0>        -0.1539
     15 C11        -1.4727   -0.1267    5.0557 C.2       1 <0>         0.1204
     16 C12        -2.0805    0.3589    6.1683 C.2       1 <0>        -0.2535
     17 C13        -3.4790    0.7880    6.3591 C.2       1 <0>         0.5625
     18 O4         -4.2885    0.7403    5.4514 O.2       1 <0>        -0.4887
     19 N1         -3.8134    1.2264    7.5610 N.am      1 <0>        -0.5426
     20 C14        -2.8817    1.2722    8.5761 C.2       1 <0>         0.3933
     21 N2         -3.0436    1.6755    9.8156 N.2       1 <0>        -0.4690
     22 C15        -1.9622    1.7759   10.6498 C.ar      1 <0>         0.0791
     23 C16        -0.8265    2.4780   10.2444 C.ar      1 <0>        -0.1251
     24 C17         0.2603    2.5755   11.0897 C.ar      1 <0>        -0.1073
     25 C18         0.2280    1.9796   12.3379 C.ar      1 <0>        -0.0789
     26 C19        -0.8928    1.2810   12.7503 C.ar      1 <0>        -0.1317
     27 C20        -1.9925    1.1791   11.9167 C.ar      1 <0>         0.1194
     28 O5         -3.0965    0.4979   12.3238 O.3       1 <0>        -0.4857
     29 C21         1.4201    2.0916   13.2530 C.3       1 <0>        -0.1136
     30 S1         -1.4035    0.6426    7.7976 S.3       1 <0>        -0.0285
     31 C22        -5.1867    1.6680    7.8161 C.3       1 <0>         0.1006
     32 C23        -6.0238    0.4802    8.2950 C.3       1 <0>        -0.1650
     33 H2          0.4362   -1.1356   -0.0290 H         1 <0>         0.0493
     34 H3         -1.1710   -1.6196   -0.6214 H         1 <0>         0.0523
     35 H4         -1.0151   -0.7678    0.9337 H         1 <0>         0.0560
     36 H5         -1.3988   -3.1927    1.2818 H         1 <0>         0.0686
     37 H6          0.0524   -3.5606    0.3191 H         1 <0>         0.0866
     38 H7          2.3980   -1.9941    3.3388 H         1 <0>         0.1358
     39 H8          3.7984   -0.8614    5.0104 H         1 <0>         0.1264
     40 H9          2.7778    0.6016    6.7032 H         1 <0>         0.1258
     41 H10         0.3462    0.9461    6.7388 H         1 <0>         0.1363
     42 H11        -2.0586   -0.3619    4.1795 H         1 <0>         0.1602
     43 H12        -0.7978    2.9440    9.2705 H         1 <0>         0.1303
     44 H13         1.1393    3.1187   10.7755 H         1 <0>         0.1293
     45 H14        -0.9109    0.8180   13.7258 H         1 <0>         0.1325
     46 H15        -3.0834   -0.4426   12.0993 H         1 <0>         0.3871
     47 H16         1.3182    2.9808   13.8752 H         1 <0>         0.0711
     48 H17         1.4746    1.2077   13.8886 H         1 <0>         0.0672
     49 H18         2.3297    2.1673   12.6572 H         1 <0>         0.0692
     50 H19        -5.1828    2.4425    8.5831 H         1 <0>         0.0960
     51 H20        -5.6161    2.0684    6.8977 H         1 <0>         0.0938
     52 H21        -7.0456    0.8088    8.4848 H         1 <0>         0.0739
     53 H22        -6.0277   -0.2942    7.5279 H         1 <0>         0.0606
     54 H23        -5.5943    0.0799    9.2133 H         1 <0>         0.0626
@<TRIPOS>BOND
     1    1    2 1
     2    1   33 1
     3    1   34 1
     4    1   35 1
     5    2    3 1
     6    2   36 1
     7    2   37 1
     8    3    4 1
     9    3    5 1
    10    3    8 1
    11    5    6 2
    12    5    7 1
    13    8    9 1
    14    9   14 ar
    15    9   10 ar
    16   10   11 ar
    17   10   38 1
    18   11   12 ar
    19   11   39 1
    20   12   13 ar
    21   12   40 1
    22   13   14 ar
    23   13   41 1
    24   14   15 1
    25   15   16 2
    26   15   42 1
    27   16   30 1
    28   16   17 1
    29   17   18 2
    30   17   19 am
    31   19   20 1
    32   19   31 1
    33   20   21 2
    34   20   30 1
    35   21   22 1
    36   22   27 ar
    37   22   23 ar
    38   23   24 ar
    39   23   43 1
    40   24   25 ar
    41   24   44 1
    42   25   26 ar
    43   25   29 1
    44   26   27 ar
    45   26   45 1
    46   27   28 1
    47   28   46 1
    48   29   47 1
    49   29   48 1
    50   29   49 1
    51   31   32 1
    52   31   50 1
    53   31   51 1
    54   32   52 1
    55   32   53 1
    56   32   54 1
@<TRIPOS>MOLECULE
ZINC13197286
   50    52     0     0     0
SMALL
USER_CHARGES
3-[3-[2-[(4-bromo-2-methyl-phenyl)amino]-2-oxo-ethyl]sulfanyl-5-(p-tolyl)-1,2,4-triazol-4-yl]propanoic acid
@<TRIPOS>ATOM
      1 C1        -14.1310    3.5927   -1.0193 C.3       1 <0>        -0.1157
      2 C2        -12.6395    3.4121   -0.9016 C.ar      1 <0>        -0.0748
      3 C3        -12.1246    2.2073   -0.4570 C.ar      1 <0>        -0.1133
      4 C4        -10.7602    2.0356   -0.3465 C.ar      1 <0>        -0.1051
      5 C5         -9.8988    3.0806   -0.6843 C.ar      1 <0>        -0.0239
      6 C6        -10.4250    4.2952   -1.1271 C.ar      1 <0>        -0.0727
      7 C7        -11.7912    4.4520   -1.2381 C.ar      1 <0>        -0.1240
      8 C8         -8.4357    2.9038   -0.5678 C.2       1 <0>         0.2270
      9 N1         -7.5378    3.8586   -0.4945 N.2       1 <0>        -0.2759
     10 N2         -6.3619    3.3488   -0.4015 N.2       1 <0>        -0.2982
     11 C9         -6.4370    2.0365   -0.4098 C.2       1 <0>         0.1378
     12 N3         -7.7576    1.7075   -0.5218 N.pl3     1 <0>        -0.4424
     13 C10        -8.3328    0.3613   -0.5786 C.3       1 <0>         0.1080
     14 C11        -8.5394   -0.1653    0.8430 C.3       1 <0>        -0.1782
     15 C12        -9.1310   -1.5501    0.7846 C.2       1 <0>         0.4697
     16 O1         -9.3636   -2.0632   -0.2843 O.co2     1 <0>        -0.6351
     17 S1         -5.0850    0.9115   -0.3038 S.3       1 <0>         0.0983
     18 C13        -3.7096    2.0828   -0.1912 C.3       1 <0>        -0.1546
     19 C14        -2.4113    1.3246   -0.0887 C.2       1 <0>         0.5360
     20 O2         -2.4154    0.1118   -0.0916 O.2       1 <0>        -0.4948
     21 N4         -1.2455    1.9943    0.0061 N.am      1 <0>        -0.6670
     22 C15        -0.0340    1.2935    0.0079 C.ar      1 <0>         0.1622
     23 C16         0.0464    0.0448    0.6105 C.ar      1 <0>        -0.1105
     24 C17         1.2415   -0.6470    0.6058 C.ar      1 <0>        -0.0757
     25 C18         2.3584   -0.0971    0.0015 C.ar      1 <0>        -0.1014
     26 C19         2.2811    1.1466   -0.5994 C.ar      1 <0>        -0.0744
     27 C20         1.0882    1.8429   -0.5977 C.ar      1 <0>        -0.1050
     28 C21         1.0047    3.1976   -1.2525 C.3       1 <0>        -0.1164
     29 Br1         3.9934   -1.0471   -0.0023 Br        1 <0>        -0.0533
     30 H1        -14.5256    3.9786   -0.0794 H         1 <0>         0.0719
     31 H2        -14.3495    4.2974   -1.8217 H         1 <0>         0.0664
     32 H3        -14.5968    2.6327   -1.2421 H         1 <0>         0.0685
     33 H4        -12.7922    1.3994   -0.1963 H         1 <0>         0.1309
     34 H5        -10.3595    1.0948    0.0010 H         1 <0>         0.1406
     35 H6         -9.7640    5.1091   -1.3861 H         1 <0>         0.1338
     36 H7        -12.1995    5.3898   -1.5848 H         1 <0>         0.1274
     37 H8         -9.2916    0.3974   -1.0956 H         1 <0>         0.1106
     38 H9         -7.6546   -0.3012   -1.1165 H         1 <0>         0.1043
     39 H10        -7.5805   -0.2014    1.3601 H         1 <0>         0.0802
     40 H11        -9.2176    0.4971    1.3809 H         1 <0>         0.0750
     41 H12        -3.8361    2.7078    0.6928 H         1 <0>         0.1311
     42 H13        -3.6940    2.7115   -1.0814 H         1 <0>         0.1302
     43 H14        -1.2461    2.9620    0.0731 H         1 <0>         0.4163
     44 H15        -0.8250   -0.3850    1.0819 H         1 <0>         0.1515
     45 H16         1.3046   -1.6182    1.0739 H         1 <0>         0.1372
     46 H17         3.1542    1.5733   -1.0706 H         1 <0>         0.1360
     47 H18         1.2459    3.9698   -0.5220 H         1 <0>         0.0754
     48 H19         1.7132    3.2458   -2.0794 H         1 <0>         0.0746
     49 H20        -0.0054    3.3572   -1.6298 H         1 <0>         0.0686
     50 O3         -9.3997   -2.2136    1.9201 O.co2     1 <0>        -0.7571
@<TRIPOS>BOND
     1    1    2 1
     2    1   30 1
     3    1   31 1
     4    1   32 1
     5    2    7 ar
     6    2    3 ar
     7    3    4 ar
     8    3   33 1
     9    4    5 ar
    10    4   34 1
    11    5    6 ar
    12    5    8 1
    13    6    7 ar
    14    6   35 1
    15    7   36 1
    16    8   12 1
    17    8    9 2
    18    9   10 1
    19   10   11 2
    20   11   12 1
    21   11   17 1
    22   12   13 1
    23   13   14 1
    24   13   37 1
    25   13   38 1
    26   14   15 1
    27   14   39 1
    28   14   40 1
    29   15   16 2
    30   15   50 1
    31   17   18 1
    32   18   19 1
    33   18   41 1
    34   18   42 1
    35   19   20 2
    36   19   21 am
    37   21   22 1
    38   21   43 1
    39   22   27 ar
    40   22   23 ar
    41   23   24 ar
    42   23   44 1
    43   24   25 ar
    44   24   45 1
    45   25   26 ar
    46   25   29 1
    47   26   27 ar
    48   26   46 1
    49   27   28 1
    50   28   47 1
    51   28   48 1
    52   28   49 1
@<TRIPOS>MOLECULE
ZINC01413475
   61    65     0     0     0
SMALL
USER_CHARGES
(4Z,5R)-4-[(4-chlorophenyl)-hydroxy-methylene]-5-(3,4-dimethoxyphenyl)-1-[2-(1H-indol-3-yl)ethyl]pyrrolidine-2,3-dione
@<TRIPOS>ATOM
      1 C1          8.5846    3.6823    7.6868 C.3       1 <0>         0.0261
      2 O1          7.4875    4.5680    7.4544 O.3       1 <0>        -0.3103
      3 C2          7.1617    4.8207    6.1584 C.ar      1 <0>         0.0882
      4 C3          7.8818    4.2285    5.1333 C.ar      1 <0>        -0.1699
      5 C4          7.5455    4.4816    3.8165 C.ar      1 <0>        -0.1062
      6 C5          6.4983    5.3338    3.5189 C.ar      1 <0>        -0.0679
      7 C6          5.7758    5.9278    4.5369 C.ar      1 <0>        -0.1429
      8 C7          6.1040    5.6739    5.8589 C.ar      1 <0>         0.0958
      9 O2          5.3940    6.2571    6.8615 O.3       1 <0>        -0.3105
     10 C8          4.2497    7.0254    6.4841 C.3       1 <0>         0.0236
     11 C9          6.1398    5.6110    2.0817 C.3       1 <0>         0.2592
     12 H1          6.6773    4.8931    1.4448 H         1 <0>         0.0693
     13 C10         6.4766    7.0410    1.7276 C.2       1 <0>        -0.4969
     14 C11         7.7241    7.6306    1.7564 C.2       1 <0>         0.3809
     15 C12         8.9201    6.8111    2.0164 C.ar      1 <0>        -0.0543
     16 C13         9.8277    7.1885    3.0118 C.ar      1 <0>        -0.0748
     17 C14        10.9421    6.4143    3.2528 C.ar      1 <0>        -0.1127
     18 C15        11.1701    5.2703    2.5048 C.ar      1 <0>        -0.0384
     19 C16        10.2780    4.8933    1.5136 C.ar      1 <0>        -0.1171
     20 C17         9.1567    5.6550    1.2652 C.ar      1 <0>        -0.0897
     21 Cl1        12.5803    4.3051    2.8104 Cl        1 <0>        -0.0883
     22 O3          7.8482    8.9583    1.5462 O.2       1 <0>        -0.6085
     23 C18         5.2645    7.6489    1.3634 C.2       1 <0>         0.3750
     24 O4          5.1229    8.8060    1.0119 O.3       1 <0>        -0.4764
     25 C19         4.1829    6.6336    1.4815 C.2       1 <0>         0.4749
     26 O5          3.0103    6.8349    1.2399 O.2       1 <0>        -0.5298
     27 N1          4.6950    5.4594    1.8866 N.am      1 <0>        -0.5990
     28 C20         3.9309    4.2295    2.1094 C.3       1 <0>         0.1386
     29 C21         3.8848    3.4160    0.8145 C.3       1 <0>        -0.0631
     30 C22         3.0988    2.1507    1.0437 C.2       1 <0>        -0.1659
     31 C23         3.5991    0.9465    1.3623 C.2       1 <0>         0.0507
     32 N2          2.5837    0.0382    1.4899 N.pl3     1 <0>        -0.6040
     33 H2          2.8096   -1.0065    1.7495 H         1 <0>         0.4398
     34 C24         1.3743    0.6515    1.2503 C.ar      1 <0>         0.1092
     35 C25         1.6439    2.0017    0.9603 C.ar      1 <0>        -0.1043
     36 C26         0.5938    2.8754    0.6731 C.ar      1 <0>        -0.0523
     37 C27        -0.6925    2.4138    0.6749 C.ar      1 <0>        -0.1452
     38 C28        -0.9637    1.0829    0.9604 C.ar      1 <0>        -0.0925
     39 C29         0.0576    0.2035    1.2467 C.ar      1 <0>        -0.1288
     40 H3          8.7392    3.5663    8.7696 H         1 <0>         0.0956
     41 H4          9.4944    4.0975    7.2288 H         1 <0>         0.0537
     42 H5          8.3645    2.7012    7.2407 H         1 <0>         0.0513
     43 H6          8.7031    3.5660    5.3631 H         1 <0>         0.1288
     44 H7          8.1045    4.0158    3.0186 H         1 <0>         0.1233
     45 H8          4.9556    6.5899    4.3017 H         1 <0>         0.1291
     46 H9          3.7715    7.4376    7.3849 H         1 <0>         0.0981
     47 H10         3.5347    6.3810    5.9516 H         1 <0>         0.0530
     48 H11         4.5621    7.8491    5.8253 H         1 <0>         0.0579
     49 H12         9.6535    8.0822    3.5925 H         1 <0>         0.1306
     50 H13        11.6417    6.7024    4.0235 H         1 <0>         0.1275
     51 H14        10.4622    4.0007    0.9342 H         1 <0>         0.1293
     52 H15         8.4625    5.3602    0.4922 H         1 <0>         0.1345
     53 H16         2.9066    4.4851    2.4184 H         1 <0>         0.0778
     54 H17         4.4144    3.6353    2.8988 H         1 <0>         0.0759
     55 H18         3.4012    4.0102    0.0251 H         1 <0>         0.0753
     56 H19         4.9091    3.1604    0.5054 H         1 <0>         0.0734
     57 H20         4.5862    0.8277    1.4697 H         1 <0>         0.1581
     58 H21         0.7841    3.8351    0.4665 H         1 <0>         0.1136
     59 H22        -1.4411    3.0426    0.4645 H         1 <0>         0.1112
     60 H23        -1.9080    0.7537    0.9599 H         1 <0>         0.1122
     61 H24        -0.1452   -0.7542    1.4510 H         1 <0>         0.1078
@<TRIPOS>BOND
     1    1    2 1
     2    1   40 1
     3    1   41 1
     4    1   42 1
     5    2    3 1
     6    3    8 ar
     7    3    4 ar
     8    4    5 ar
     9    4   43 1
    10    5    6 ar
    11    5   44 1
    12    6    7 ar
    13    6   11 1
    14    7    8 ar
    15    7   45 1
    16    8    9 1
    17    9   10 1
    18   10   46 1
    19   10   47 1
    20   10   48 1
    21   11   13 1
    22   11   27 1
    23   11   12 1
    24   13   23 2
    25   13   14 1
    26   14   22 2
    27   14   15 1
    28   15   20 ar
    29   15   16 ar
    30   16   17 ar
    31   16   49 1
    32   17   18 ar
    33   17   50 1
    34   18   19 ar
    35   18   21 1
    36   19   20 ar
    37   19   51 1
    38   20   52 1
    39   23   25 1
    40   23   24 1
    41   25   27 am
    42   25   26 2
    43   27   28 1
    44   28   29 1
    45   28   53 1
    46   28   54 1
    47   29   30 1
    48   29   55 1
    49   29   56 1
    50   30   35 1
    51   30   31 2
    52   31   32 1
    53   31   57 1
    54   32   33 1
    55   32   34 1
    56   34   39 ar
    57   34   35 ar
    58   35   36 ar
    59   36   37 ar
    60   36   58 1
    61   37   38 ar
    62   37   59 1
    63   38   39 ar
    64   38   60 1
    65   39   61 1
@<TRIPOS>MOLECULE
ZINC36050341
   63    66     0     0     0
SMALL
USER_CHARGES

@<TRIPOS>ATOM
      1 C1          1.2487   -1.1998   -2.1882 C.3       1 <0>        -0.1505
      2 C2          0.5819   -1.2898   -0.8141 C.3       1 <0>         0.0573
      3 O1         -0.7759   -1.7068   -0.9699 O.3       1 <0>        -0.3569
      4 C3         -1.5400   -1.7376    0.1444 C.2       1 <0>         0.5603
      5 O2         -1.0914   -1.3313    1.2023 O.2       1 <0>        -0.5010
      6 C4         -2.8469   -2.2362    0.0835 C.2       1 <0>        -0.3776
      7 C5         -3.0899   -3.5942    0.0053 C.2       1 <0>         0.2519
      8 N1         -4.3302   -4.0511   -0.0516 N.2       1 <0>        -0.5952
      9 C6         -5.4101   -3.2971   -0.0398 C.2       1 <0>         0.3239
     10 N2         -5.3869   -1.9324    0.0336 N.pl3     1 <0>        -0.5198
     11 C7         -4.0397   -1.3067    0.1077 C.3       1 <0>         0.2715
     12 H1         -3.9461   -0.6188   -0.7327 H         1 <0>         0.0728
     13 C8         -3.9695   -0.4947    1.3753 C.ar      1 <0>        -0.0650
     14 C9         -4.5858   -0.9531    2.5249 C.ar      1 <0>        -0.0764
     15 C10        -4.5214   -0.2084    3.6874 C.ar      1 <0>        -0.0905
     16 C11        -3.8404    0.9947    3.7009 C.ar      1 <0>        -0.1202
     17 C12        -3.2235    1.4525    2.5519 C.ar      1 <0>        -0.1165
     18 C13        -3.2843    0.7055    1.3901 C.ar      1 <0>        -0.0687
     19 C14        -2.6073    1.2022    0.1387 C.3       1 <0>        -0.1137
     20 C15        -5.1940   -0.7076    4.9402 C.3       1 <0>        -0.1081
     21 C16        -6.6057   -1.2839    0.0366 C.2       1 <0>         0.2378
     22 C17        -7.7206   -2.0443   -0.0328 C.2       1 <0>        -0.3090
     23 S1         -7.0407   -3.6897   -0.1035 S.3       1 <0>         0.1220
     24 C18        -6.6878    0.1818    0.1131 C.2       1 <0>        -0.4645
     25 C19        -7.8839    0.7824    0.2637 C.2       1 <0>         0.5036
     26 O3         -8.9941    0.0363    0.4819 O.3       1 <0>        -0.7065
     27 N3         -7.9793    2.1621    0.1957 N.pl3     1 <0>        -0.7499
     28 C20        -9.2583    2.8222    0.4684 C.3       1 <0>         0.1343
     29 C21        -9.1236    4.3235    0.2058 C.3       1 <0>         0.0682
     30 H2         -8.2887    4.7257    0.7796 H         1 <0>         0.0797
     31 C22       -10.4291    5.0443    0.6053 C.3       1 <0>        -0.1475
     32 C23       -10.5787    6.1033   -0.5207 C.3       1 <0>        -0.1557
     33 C24        -9.9936    5.3314   -1.7301 C.3       1 <0>         0.0489
     34 O4         -8.9093    4.5551   -1.1914 O.3       1 <0>        -0.3719
     35 C25        -1.9343   -4.5612   -0.0160 C.3       1 <0>        -0.1050
     36 H3          2.2556   -0.7973   -2.0778 H         1 <0>         0.0735
     37 H4          1.3013   -2.1938   -2.6323 H         1 <0>         0.0639
     38 H5          0.6641   -0.5441   -2.8335 H         1 <0>         0.0655
     39 H6          1.1158   -2.0132   -0.1979 H         1 <0>         0.0608
     40 H7          0.6089   -0.3123   -0.3325 H         1 <0>         0.0635
     41 H8         -5.1178   -1.8929    2.5144 H         1 <0>         0.1046
     42 H9         -3.7906    1.5770    4.6091 H         1 <0>         0.1134
     43 H10        -2.6918    2.3925    2.5623 H         1 <0>         0.1138
     44 H11        -3.2732    1.8858   -0.3879 H         1 <0>         0.0694
     45 H12        -1.6881    1.7237    0.4054 H         1 <0>         0.0629
     46 H13        -2.3708    0.3562   -0.5067 H         1 <0>         0.0578
     47 H14        -4.4940   -1.3194    5.5093 H         1 <0>         0.0630
     48 H15        -5.5100    0.1417    5.5460 H         1 <0>         0.0615
     49 H16        -6.0644   -1.3061    4.6715 H         1 <0>         0.0638
     50 H17        -8.7553   -1.7350   -0.0425 H         1 <0>         0.2300
     51 H18        -5.7889    0.7770    0.0485 H         1 <0>         0.0826
     52 H19        -7.1992    2.6915   -0.0325 H         1 <0>         0.3864
     53 H20       -10.0276    2.4070   -0.1828 H         1 <0>         0.0584
     54 H21        -9.5367    2.6590    1.5095 H         1 <0>         0.0541
     55 H22       -11.2712    4.3522    0.6013 H         1 <0>         0.0816
     56 H23       -10.3249    5.5245    1.5782 H         1 <0>         0.0816
     57 H24       -11.6261    6.3562   -0.6856 H         1 <0>         0.0809
     58 H25        -9.9910    6.9949   -0.3021 H         1 <0>         0.0758
     59 H26       -10.7500    4.6768   -2.1630 H         1 <0>         0.0592
     60 H27        -9.6219    6.0293   -2.4804 H         1 <0>         0.0811
     61 H28        -1.7380   -4.9150    0.9961 H         1 <0>         0.0776
     62 H29        -2.1813   -5.4086   -0.6556 H         1 <0>         0.0814
     63 H30        -1.0478   -4.0595   -0.4039 H         1 <0>         0.0697
@<TRIPOS>BOND
     1    1    2 1
     2    1   36 1
     3    1   37 1
     4    1   38 1
     5    2    3 1
     6    2   39 1
     7    2   40 1
     8    3    4 1
     9    4    5 2
    10    4    6 1
    11    6   11 1
    12    6    7 2
    13    7    8 1
    14    7   35 1
    15    8    9 2
    16    9   23 1
    17    9   10 1
    18   10   11 1
    19   10   21 1
    20   11   12 1
    21   11   13 1
    22   13   18 ar
    23   13   14 ar
    24   14   15 ar
    25   14   41 1
    26   15   16 ar
    27   15   20 1
    28   16   17 ar
    29   16   42 1
    30   17   18 ar
    31   17   43 1
    32   18   19 1
    33   19   44 1
    34   19   45 1
    35   19   46 1
    36   20   47 1
    37   20   48 1
    38   20   49 1
    39   21   22 2
    40   21   24 1
    41   22   23 1
    42   22   50 1
    43   24   25 2
    44   24   51 1
    45   25   26 1
    46   25   27 1
    47   27   28 1
    48   27   52 1
    49   28   29 1
    50   28   53 1
    51   28   54 1
    52   29   30 1
    53   29   34 1
    54   29   31 1
    55   31   32 1
    56   31   55 1
    57   31   56 1
    58   32   33 1
    59   32   57 1
    60   32   58 1
    61   33   34 1
    62   33   59 1
    63   33   60 1
    64   35   61 1
    65   35   62 1
    66   35   63 1
@<TRIPOS>MOLECULE
ZINC06170894
   57    59     0     0     0
SMALL
USER_CHARGES

@<TRIPOS>ATOM
      1 C1          0.2910    1.5858   -0.0851 C.3       1 <0>        -0.1795
      2 C2          0.0665    0.0747   -0.0018 C.3       1 <0>         0.1361
      3 H1          0.4743   -0.4029   -0.8927 H         1 <0>         0.1129
      4 C3         -1.4333   -0.2137    0.0903 C.3       1 <0>        -0.1539
      5 C4         -1.6655   -1.7254    0.0479 C.3       1 <0>        -0.1210
      6 C5         -3.1652   -2.0138    0.1400 C.3       1 <0>        -0.1086
      7 C6         -3.3974   -3.5255    0.0977 C.3       1 <0>        -0.0997
      8 C7         -4.8831   -3.8196    0.3147 C.3       1 <0>        -0.1460
      9 C8         -2.9633   -4.0702   -1.2646 C.3       1 <0>        -0.1498
     10 N1          0.7394   -0.4542    1.1872 N.pl3     1 <0>        -0.4780
     11 C9          1.7943   -1.3453    1.1906 C.2       1 <0>         0.3330
     12 N2          2.1293   -1.5862    2.4270 N.2       1 <0>        -0.2598
     13 N3          1.2820   -0.8419    3.2592 N.pl3     1 <0>        -0.4696
     14 C10         0.4389   -0.1501    2.4655 C.2       1 <0>         0.4767
     15 S1         -0.7928    0.9183    2.9875 S.2       1 <0>        -0.5831
     16 C11         2.4365   -1.9289   -0.0082 C.ar      1 <0>        -0.0757
     17 C12         2.5272   -1.1862   -1.1858 C.ar      1 <0>        -0.0584
     18 C13         3.1275   -1.7356   -2.2998 C.ar      1 <0>        -0.1386
     19 C14         3.6390   -3.0204   -2.2509 C.ar      1 <0>         0.0083
     20 C15         3.5517   -3.7619   -1.0865 C.ar      1 <0>        -0.6109
     21 C16         2.9587   -3.2215    0.0363 C.ar      1 <0>         0.0334
     22 S2          4.2051   -5.3975   -1.0347 S.o2      1 <0>         2.5975
     23 O1          3.5125   -6.0789    0.0022 O.2       1 <0>        -1.0226
     24 O2          4.2255   -5.8692   -2.3750 O.2       1 <0>        -1.0231
     25 N4          5.7843   -5.2788   -0.5506 N.2       1 <0>        -1.0691
     26 C17         6.5632   -6.4316   -0.4186 C.ar      1 <0>         0.2863
     27 C18         6.0161   -7.6771   -0.6986 C.ar      1 <0>        -0.2558
     28 C19         6.7887   -8.8144   -0.5677 C.ar      1 <0>        -0.0627
     29 C20         8.1057   -8.7147   -0.1578 C.ar      1 <0>        -0.2160
     30 C21         8.6543   -7.4767    0.1220 C.ar      1 <0>        -0.0706
     31 C22         7.8888   -6.3339   -0.0124 C.ar      1 <0>        -0.0924
     32 Cl1         8.5798   -4.7792    0.3326 Cl        1 <0>        -0.0911
     33 H2          1.3595    1.7913   -0.1507 H         1 <0>         0.0588
     34 H3         -0.2096    1.9793   -0.9698 H         1 <0>         0.0834
     35 H4         -0.1168    2.0634    0.8058 H         1 <0>         0.0973
     36 H5         -1.8238    0.1878    1.0254 H         1 <0>         0.1174
     37 H6         -1.9459    0.2562   -0.7491 H         1 <0>         0.0860
     38 H7         -1.2750   -2.1269   -0.8872 H         1 <0>         0.0635
     39 H8         -1.1529   -2.1954    0.8873 H         1 <0>         0.0515
     40 H9         -3.5557   -1.6123    1.0751 H         1 <0>         0.0641
     41 H10        -3.6778   -1.5439   -0.6993 H         1 <0>         0.0626
     42 H11        -2.8135   -4.0049    0.8835 H         1 <0>         0.0670
     43 H12        -5.4669   -3.3402   -0.4710 H         1 <0>         0.0531
     44 H13        -5.0485   -4.8966    0.2846 H         1 <0>         0.0530
     45 H14        -5.1923   -3.4316    1.2853 H         1 <0>         0.0531
     46 H15        -3.5472   -3.5908   -2.0503 H         1 <0>         0.0533
     47 H16        -1.9049   -3.8607   -1.4192 H         1 <0>         0.0565
     48 H17        -3.1287   -5.1472   -1.2947 H         1 <0>         0.0532
     49 H18         1.3008   -0.8247    4.2288 H         1 <0>         0.4686
     50 H19         2.1281   -0.1834   -1.2254 H         1 <0>         0.1344
     51 H20         3.1980   -1.1619   -3.2121 H         1 <0>         0.1411
     52 H21         4.1080   -3.4461   -3.1256 H         1 <0>         0.1476
     53 H22         2.8951   -3.7998    0.9462 H         1 <0>         0.1487
     54 H23         4.9875   -7.7562   -1.0181 H         1 <0>         0.1039
     55 H24         6.3636   -9.7831   -0.7854 H         1 <0>         0.1080
     56 H25         8.7071   -9.6060   -0.0557 H         1 <0>         0.1107
     57 H26         9.6831   -7.4024    0.4422 H         1 <0>         0.1150
@<TRIPOS>BOND
     1    1    2 1
     2    1   33 1
     3    1   34 1
     4    1   35 1
     5    2    3 1
     6    2    4 1
     7    2   10 1
     8    4    5 1
     9    4   36 1
    10    4   37 1
    11    5    6 1
    12    5   38 1
    13    5   39 1
    14    6    7 1
    15    6   40 1
    16    6   41 1
    17    7    8 1
    18    7    9 1
    19    7   42 1
    20    8   43 1
    21    8   44 1
    22    8   45 1
    23    9   46 1
    24    9   47 1
    25    9   48 1
    26   10   14 1
    27   10   11 1
    28   11   16 1
    29   11   12 2
    30   12   13 1
    31   13   14 1
    32   13   49 1
    33   14   15 2
    34   16   21 ar
    35   16   17 ar
    36   17   18 ar
    37   17   50 1
    38   18   19 ar
    39   18   51 1
    40   19   20 ar
    41   19   52 1
    42   20   21 ar
    43   20   22 1
    44   21   53 1
    45   22   23 2
    46   22   24 2
    47   22   25 1
    48   25   26 1
    49   26   31 ar
    50   26   27 ar
    51   27   28 ar
    52   27   54 1
    53   28   29 ar
    54   28   55 1
    55   29   30 ar
    56   29   56 1
    57   30   31 ar
    58   30   57 1
    59   31   32 1
@<TRIPOS>MOLECULE
ZINC44318933
   53    55     0     0     0
SMALL
USER_CHARGES

@<TRIPOS>ATOM
      1 C1          0.0175    1.5033   -0.0199 C.3       1 <0>        -0.1131
      2 C2          0.0301   -0.0037   -0.0216 C.ar      1 <0>        -0.0825
      3 C3          0.1128   -0.6907   -1.2192 C.ar      1 <0>        -0.1237
      4 C4          0.1248   -2.0708   -1.2267 C.ar      1 <0>        -0.0838
      5 C5          0.0537   -2.7720   -0.0247 C.ar      1 <0>        -0.0155
      6 C6         -0.0290   -2.0748    1.1789 C.ar      1 <0>        -0.0882
      7 C7         -0.0353   -0.6947    1.1749 C.ar      1 <0>        -0.1116
      8 C8          0.0657   -4.2560   -0.0264 C.2       1 <0>         0.1051
      9 C9          0.7803   -5.0492    0.8199 C.2       1 <0>        -0.0181
     10 N1          0.5087   -6.3449    0.4810 N.pl3     1 <0>        -0.3555
     11 C10         0.9413   -7.5381    0.9856 C.2       1 <0>         0.1043
     12 C11         0.5110   -8.7042    0.4583 C.2       1 <0>        -0.1199
     13 C12        -0.3904   -8.7046   -0.6200 C.2       1 <0>        -0.0905
     14 C13        -0.8290   -7.5235   -1.1319 C.2       1 <0>        -0.0626
     15 C14        -0.3707   -6.3138   -0.5707 C.2       1 <0>         0.2175
     16 N2         -0.6303   -5.0469   -0.8583 N.2       1 <0>        -0.4682
     17 Br1         1.1244  -10.3438    1.1733 Br        1 <0>        -0.0161
     18 C15         1.6974   -4.5851    1.9219 C.3       1 <0>        -0.0423
     19 C16         3.0819   -4.2882    1.3422 C.3       1 <0>         0.1005
     20 H1          2.9878   -3.5731    0.5250 H         1 <0>         0.0915
     21 C17         3.9633   -3.7084    2.4183 C.2       1 <0>         0.4930
     22 O1          4.8910   -4.3619    2.8642 O.co2     1 <0>        -0.6805
     23 O2          3.7487   -2.5859    2.8429 O.co2     1 <0>        -0.6857
     24 N3          3.6770   -5.5289    0.8393 N.am      1 <0>        -0.6779
     25 C18         4.6114   -5.4831   -0.1309 C.2       1 <0>         0.6553
     26 O3          4.9601   -4.4129   -0.5886 O.2       1 <0>        -0.5666
     27 O4          5.1583   -6.6233   -0.5931 O.3       1 <0>        -0.3661
     28 C19         6.1425   -6.5003   -1.6218 C.3       1 <0>         0.1358
     29 C20         7.3142   -5.6606   -1.1089 C.3       1 <0>        -0.1847
     30 C21         6.6452   -7.8906   -2.0156 C.3       1 <0>        -0.1366
     31 C22         5.5218   -5.8178   -2.8424 C.3       1 <0>        -0.1831
     32 H2          1.0403    1.8751    0.0416 H         1 <0>         0.0716
     33 H3         -0.4456    1.8638   -0.9384 H         1 <0>         0.0629
     34 H4         -0.5513    1.8609    0.8385 H         1 <0>         0.0648
     35 H5          0.1678   -0.1462   -2.1503 H         1 <0>         0.1212
     36 H6          0.1887   -2.6063   -2.1624 H         1 <0>         0.1220
     37 H7         -0.0842   -2.6134    2.1134 H         1 <0>         0.1256
     38 H8         -0.0953   -0.1532    2.1075 H         1 <0>         0.1257
     39 H9          1.6342   -7.5489    1.8138 H         1 <0>         0.1687
     40 H10        -0.7328   -9.6387   -1.0403 H         1 <0>         0.1492
     41 H11        -1.5215   -7.5122   -1.9607 H         1 <0>         0.1573
     42 H12         1.2919   -3.6807    2.3755 H         1 <0>         0.1182
     43 H13         1.7801   -5.3654    2.6785 H         1 <0>         0.0743
     44 H14         3.3986   -6.3832    1.2046 H         1 <0>         0.3869
     45 H15         7.7564   -6.1468   -0.2394 H         1 <0>         0.0589
     46 H16         8.0648   -5.5668   -1.8937 H         1 <0>         0.0625
     47 H17         6.9560   -4.6701   -0.8284 H         1 <0>         0.0913
     48 H18         5.8105   -8.4888   -2.3810 H         1 <0>         0.0622
     49 H19         7.3959   -7.7968   -2.8003 H         1 <0>         0.0752
     50 H20         7.0874   -8.3768   -1.1460 H         1 <0>         0.0650
     51 H21         5.1636   -4.8273   -2.5619 H         1 <0>         0.0890
     52 H22         6.2724   -5.7240   -3.6271 H         1 <0>         0.0642
     53 H23         4.6870   -6.4160   -3.2078 H         1 <0>         0.0534
@<TRIPOS>BOND
     1    1    2 1
     2    1   32 1
     3    1   33 1
     4    1   34 1
     5    2    7 ar
     6    2    3 ar
     7    3    4 ar
     8    3   35 1
     9    4    5 ar
    10    4   36 1
    11    5    6 ar
    12    5    8 1
    13    6    7 ar
    14    6   37 1
    15    7   38 1
    16    8   16 1
    17    8    9 2
    18    9   10 1
    19    9   18 1
    20   10   15 1
    21   10   11 1
    22   11   12 2
    23   11   39 1
    24   12   13 1
    25   12   17 1
    26   13   14 2
    27   13   40 1
    28   14   15 1
    29   14   41 1
    30   15   16 2
    31   18   19 1
    32   18   42 1
    33   18   43 1
    34   19   20 1
    35   19   21 1
    36   19   24 1
    37   21   22 2
    38   21   23 1
    39   24   25 am
    40   24   44 1
    41   25   26 2
    42   25   27 1
    43   27   28 1
    44   28   29 1
    45   28   30 1
    46   28   31 1
    47   29   45 1
    48   29   46 1
    49   29   47 1
    50   30   48 1
    51   30   49 1
    52   30   50 1
    53   31   51 1
    54   31   52 1
    55   31   53 1
@<TRIPOS>MOLECULE
ZINC64795536
   53    56     0     0     0
SMALL
USER_CHARGES

@<TRIPOS>ATOM
      1 C1         -0.0187    1.5258    0.0104 C.3       1 <0>        -0.1489
      2 C2          0.0021   -0.0041    0.0020 C.3       1 <0>        -0.1233
      3 C3         -1.4333   -0.5336    0.0129 C.3       1 <0>         0.0647
      4 O1         -1.4139   -1.9625    0.0050 O.3       1 <0>        -0.3186
      5 C4         -2.6171   -2.5963    0.0131 C.ar      1 <0>         0.0787
      6 C5         -3.2227   -2.9213    1.2163 C.ar      1 <0>        -0.0605
      7 C6         -4.4460   -3.5651    1.2228 C.ar      1 <0>        -0.1259
      8 C7         -5.0676   -3.8867    0.0305 C.ar      1 <0>        -0.0791
      9 C8         -4.4687   -3.5658   -1.1734 C.ar      1 <0>        -0.1958
     10 C9         -3.2455   -2.9149   -1.1869 C.ar      1 <0>         0.1105
     11 O2         -2.6578   -2.5931   -2.3703 O.3       1 <0>        -0.3064
     12 C10        -3.3605   -2.9508   -3.5621 C.3       1 <0>         0.0253
     13 C11        -2.5475   -2.5732    2.5179 C.3       1 <0>         0.0543
     14 H1         -1.5996   -2.0736    2.3180 H         1 <0>         0.1039
     15 C12        -3.4550   -1.6505    3.3407 C.3       1 <0>        -0.1237
     16 C13        -3.0162   -1.6207    4.7772 C.2       1 <0>         0.5257
     17 O3         -3.0724   -0.5690    5.3790 O.2       1 <0>        -0.5447
     18 N1         -2.5639   -2.7079    5.4246 N.am      1 <0>        -0.6449
     19 C14        -2.3037   -3.8930    4.6791 C.2       1 <0>         0.1196
     20 C15        -2.3035   -3.8223    3.3108 C.2       1 <0>        -0.3124
     21 S1         -1.9847   -5.3638    2.7678 S.3       1 <0>         0.2689
     22 C16        -1.7950   -6.1838    4.3405 C.2       1 <0>        -0.1454
     23 C17        -2.0224   -5.1359    5.2436 C.2       1 <0>        -0.1061
     24 C18        -1.9654   -5.3369    6.7092 C.ar      1 <0>         0.0133
     25 C19        -0.9835   -4.6968    7.4660 C.ar      1 <0>        -0.1067
     26 C20        -0.9354   -4.8874    8.8314 C.ar      1 <0>        -0.1143
     27 C21        -1.8593   -5.7121    9.4509 C.ar      1 <0>        -0.0369
     28 C22        -2.8358   -6.3502    8.7047 C.ar      1 <0>        -0.1089
     29 C23        -2.8969   -6.1625    7.3395 C.ar      1 <0>        -0.0460
     30 Cl1        -1.7929   -5.9473   11.1697 Cl        1 <0>        -0.0882
     31 C24        -1.4949   -7.5387    4.6069 C.2       1 <0>         0.5444
     32 O4         -1.3269   -8.3229    3.6801 O.co2     1 <0>        -0.6766
     33 O5         -1.4025   -7.9297    5.7649 O.co2     1 <0>        -0.6523
     34 H2          1.0039    1.9031    0.0027 H         1 <0>         0.0619
     35 H3         -0.5459    1.8868   -0.8726 H         1 <0>         0.0551
     36 H4         -0.5289    1.8773    0.9072 H         1 <0>         0.0568
     37 H5          0.5123   -0.3556   -0.8948 H         1 <0>         0.0727
     38 H6          0.5293   -0.3651    0.8851 H         1 <0>         0.0724
     39 H7         -1.9435   -0.1821    0.9097 H         1 <0>         0.0509
     40 H8         -1.9605   -0.1726   -0.8702 H         1 <0>         0.0527
     41 H9         -4.9169   -3.8178    2.1613 H         1 <0>         0.1306
     42 H10        -6.0231   -4.3900    0.0397 H         1 <0>         0.1307
     43 H11        -4.9563   -3.8184   -2.1034 H         1 <0>         0.1323
     44 H12        -3.5025   -4.0312   -3.5898 H         1 <0>         0.0570
     45 H13        -4.3318   -2.4563   -3.5734 H         1 <0>         0.0536
     46 H14        -2.7833   -2.6378   -4.4321 H         1 <0>         0.0992
     47 H15        -3.4090   -0.6419    2.9299 H         1 <0>         0.1058
     48 H16        -4.4812   -2.0137    3.2858 H         1 <0>         0.1057
     49 H17        -2.4168   -2.6857    6.3831 H         1 <0>         0.4104
     50 H18        -0.2622   -4.0537    6.9838 H         1 <0>         0.1244
     51 H19        -0.1756   -4.3927    9.4182 H         1 <0>         0.1279
     52 H20        -3.5534   -6.9929    9.1930 H         1 <0>         0.1288
     53 H21        -3.6616   -6.6571    6.7590 H         1 <0>         0.1272
@<TRIPOS>BOND
     1    1    2 1
     2    1   34 1
     3    1   35 1
     4    1   36 1
     5    2    3 1
     6    2   37 1
     7    2   38 1
     8    3    4 1
     9    3   39 1
    10    3   40 1
    11    4    5 1
    12    5   10 ar
    13    5    6 ar
    14    6    7 ar
    15    6   13 1
    16    7    8 ar
    17    7   41 1
    18    8    9 ar
    19    8   42 1
    20    9   10 ar
    21    9   43 1
    22   10   11 1
    23   11   12 1
    24   12   44 1
    25   12   45 1
    26   12   46 1
    27   13   14 1
    28   13   20 1
    29   13   15 1
    30   15   16 1
    31   15   47 1
    32   15   48 1
    33   16   17 2
    34   16   18 am
    35   18   19 1
    36   18   49 1
    37   19   23 1
    38   19   20 2
    39   20   21 1
    40   21   22 1
    41   22   23 2
    42   22   31 1
    43   23   24 1
    44   24   29 ar
    45   24   25 ar
    46   25   26 ar
    47   25   50 1
    48   26   27 ar
    49   26   51 1
    50   27   28 ar
    51   27   30 1
    52   28   29 ar
    53   28   52 1
    54   29   53 1
    55   31   32 2
    56   31   33 1
@<TRIPOS>MOLECULE
ZINC00949378
   41    43     0     0     0
SMALL
USER_CHARGES
(E)-3-[5-[2-chloro-5-(trifluoromethyl)phenyl]-2-furyl]-2-cyano-N-(4-fluorophenyl)prop-2-enamide
@<TRIPOS>ATOM
      1 C1         -2.3252    1.0437    0.6943 C.ar      1 <0>        -0.1125
      2 C2         -3.5522    1.6778    0.6967 C.ar      1 <0>        -0.1338
      3 C3         -3.7199    2.8660    0.0057 C.ar      1 <0>         0.0873
      4 C4         -2.6570    3.4239   -0.6846 C.ar      1 <0>        -0.1341
      5 C5         -1.4269    2.7959   -0.6852 C.ar      1 <0>        -0.0892
      6 C6         -1.2565    1.6041    0.0071 C.ar      1 <0>         0.1314
      7 N1         -0.0111    0.9658    0.0074 N.am      1 <0>        -0.6661
      8 C7          1.1210    1.6972    0.0061 C.2       1 <0>         0.5796
      9 O1          1.0618    2.9102   -0.0751 O.2       1 <0>        -0.5091
     10 C8          2.4250    1.0311    0.1028 C.2       1 <0>        -0.1344
     11 C9          3.5910    1.7844    0.1015 C.2       1 <0>         0.1035
     12 C10         4.8386    1.1471    0.1940 C.2       1 <0>        -0.0447
     13 C11         6.0757    1.7759    0.1982 C.2       1 <0>        -0.1089
     14 C12         7.0371    0.7726    0.3072 C.2       1 <0>        -0.1784
     15 C13         6.3627   -0.4296    0.3577 C.2       1 <0>         0.0642
     16 O2          5.0430   -0.1845    0.2884 O.3       1 <0>        -0.1443
     17 C14         6.9860   -1.7620    0.4691 C.ar      1 <0>        -0.0272
     18 C15         6.5424   -2.6659    1.4383 C.ar      1 <0>        -0.0263
     19 C16         7.1296   -3.9095    1.5367 C.ar      1 <0>        -0.1784
     20 C17         8.1561   -4.2646    0.6784 C.ar      1 <0>        -0.0397
     21 C18         8.6013   -3.3761   -0.2837 C.ar      1 <0>        -0.1077
     22 C19         8.0196   -2.1290   -0.3981 C.ar      1 <0>         0.0187
     23 Cl1         8.5745   -1.0175   -1.6107 Cl        1 <0>        -0.0325
     24 C20         6.6523   -4.8852    2.5813 C.3       1 <0>         0.5113
     25 F1          5.6236   -5.6707    2.0503 F         1 <0>        -0.1701
     26 F2          7.7143   -5.7085    2.9704 F         1 <0>        -0.1717
     27 F3          6.1758   -4.1822    3.6930 F         1 <0>        -0.1728
     28 C21         2.4946   -0.3960    0.1984 C.1       1 <0>         0.2355
     29 N2          2.5499   -1.5281    0.2742 N.1       1 <0>        -0.3871
     30 F4         -4.9222    3.4822    0.0054 F         1 <0>        -0.1382
     31 H1         -2.1960    0.1147    1.2297 H         1 <0>         0.1366
     32 H2         -4.3825    1.2444    1.2344 H         1 <0>         0.1413
     33 H3         -2.7898    4.3509   -1.2226 H         1 <0>         0.1414
     34 H4         -0.5981    3.2315   -1.2234 H         1 <0>         0.1518
     35 H5          0.0374   -0.0030    0.0044 H         1 <0>         0.4129
     36 H6          3.5385    2.8607    0.0294 H         1 <0>         0.1907
     37 H7          6.2583    2.8383    0.1315 H         1 <0>         0.1732
     38 H8          8.1077    0.9101    0.3417 H         1 <0>         0.1652
     39 H9          5.7417   -2.3908    2.1088 H         1 <0>         0.1502
     40 H10         8.6114   -5.2405    0.7602 H         1 <0>         0.1546
     41 H11         9.4025   -3.6601   -0.9499 H         1 <0>         0.1578
@<TRIPOS>BOND
     1    1    6 ar
     2    1    2 ar
     3    1   31 1
     4    2    3 ar
     5    2   32 1
     6    3    4 ar
     7    3   30 1
     8    4    5 ar
     9    4   33 1
    10    5    6 ar
    11    5   34 1
    12    6    7 1
    13    7    8 am
    14    7   35 1
    15    8    9 2
    16    8   10 1
    17   10   11 2
    18   10   28 1
    19   11   12 1
    20   11   36 1
    21   12   16 1
    22   12   13 2
    23   13   14 1
    24   13   37 1
    25   14   15 2
    26   14   38 1
    27   15   16 1
    28   15   17 1
    29   17   22 ar
    30   17   18 ar
    31   18   19 ar
    32   18   39 1
    33   19   20 ar
    34   19   24 1
    35   20   21 ar
    36   20   40 1
    37   21   22 ar
    38   21   41 1
    39   22   23 1
    40   24   25 1
    41   24   26 1
    42   24   27 1
    43   28   29 3
@<TRIPOS>MOLECULE
ZINC20881829
   47    50     0     0     0
SMALL
USER_CHARGES
(4S,7R)-4-(3-chloro-4-methoxy-phenyl)-7-(3,4-dichlorophenyl)-1,3,4,6,7,8-hexahydroquinoline-2,5-dione
@<TRIPOS>ATOM
      1 C1         -9.0004    0.5656   -1.5738 C.3       1 <0>         0.0217
      2 O1         -8.9393    1.3855   -0.4049 O.3       1 <0>        -0.3039
      3 C2         -7.8865    2.2394   -0.3045 C.ar      1 <0>         0.1385
      4 C3         -6.9320    2.2868   -1.3098 C.ar      1 <0>        -0.1937
      5 C4         -5.8655    3.1589   -1.2078 C.ar      1 <0>        -0.0792
      6 C5         -5.7428    3.9770   -0.0998 C.ar      1 <0>        -0.1048
      7 C6         -6.6923    3.9324    0.9040 C.ar      1 <0>        -0.0568
      8 C7         -7.7645    3.0652    0.8045 C.ar      1 <0>        -0.0665
      9 Cl1        -8.9564    3.0088    2.0654 Cl        1 <0>        -0.0524
     10 C8         -4.5753    4.9235    0.0107 C.3       1 <0>         0.0126
     11 H1         -4.6532    5.4781    0.9575 H         1 <0>         0.1146
     12 C9         -4.5898    5.8921   -1.1731 C.3       1 <0>        -0.1388
     13 C10        -4.2014    5.1474   -2.4244 C.2       1 <0>         0.5276
     14 O2         -4.6933    5.4552   -3.4890 O.2       1 <0>        -0.5038
     15 N1         -3.3110    4.1421   -2.3625 N.am      1 <0>        -0.6750
     16 C11        -2.7192    3.7908   -1.1758 C.2       1 <0>         0.2251
     17 C12        -3.2859    4.1365   -0.0008 C.2       1 <0>        -0.2735
     18 C13        -2.7010    3.7811    1.2260 C.2       1 <0>         0.4071
     19 O3         -3.2346    4.1201    2.2635 O.2       1 <0>        -0.4603
     20 C14        -1.4231    2.9872    1.2750 C.3       1 <0>        -0.1625
     21 C15        -1.3321    2.1131    0.0198 C.3       1 <0>        -0.0363
     22 H2         -2.1411    1.3679    0.0104 H         1 <0>         0.0991
     23 C16        -1.4253    3.0163   -1.2120 C.3       1 <0>        -0.0946
     24 C17        -0.0167    1.3778    0.0096 C.ar      1 <0>        -0.0667
     25 C18         1.1707    2.0862    0.0021 C.ar      1 <0>        -0.0979
     26 C19         2.3777    1.4131   -0.0130 C.ar      1 <0>        -0.0939
     27 C20         2.3983    0.0298   -0.0206 C.ar      1 <0>        -0.0316
     28 C21         1.2094   -0.6794   -0.0131 C.ar      1 <0>        -0.0285
     29 C22         0.0021   -0.0041    0.0020 C.ar      1 <0>        -0.0907
     30 Cl2         1.2335   -2.4152   -0.0221 Cl        1 <0>        -0.0429
     31 Cl3         3.9142   -0.8161   -0.0402 Cl        1 <0>        -0.0440
     32 H3         -9.8950   -0.0728   -1.5275 H         1 <0>         0.1065
     33 H4         -8.1014   -0.0661   -1.6259 H         1 <0>         0.0581
     34 H5         -9.0518    1.2047   -2.4676 H         1 <0>         0.0588
     35 H6         -7.0248    1.6453   -2.1737 H         1 <0>         0.1364
     36 H7         -5.1246    3.1991   -1.9927 H         1 <0>         0.1281
     37 H8         -6.5966    4.5756    1.7663 H         1 <0>         0.1435
     38 H9         -5.5996    6.3121   -1.2908 H         1 <0>         0.1172
     39 H10        -3.8732    6.7062   -0.9896 H         1 <0>         0.1140
     40 H11        -3.0457    3.5855   -3.2734 H         1 <0>         0.4404
     41 H12        -0.5654    3.6749    1.3117 H         1 <0>         0.1071
     42 H13        -1.4211    2.3505    2.1720 H         1 <0>         0.1043
     43 H14        -1.3933    2.3982   -2.1214 H         1 <0>         0.0984
     44 H15        -0.5780    3.7178   -1.2155 H         1 <0>         0.1090
     45 H16         1.1550    3.1660    0.0077 H         1 <0>         0.1403
     46 H17         3.3048    1.9671   -0.0185 H         1 <0>         0.1454
     47 H18        -0.9258   -0.5567    0.0082 H         1 <0>         0.1443
@<TRIPOS>BOND
     1    1    2 1
     2    1   32 1
     3    1   33 1
     4    1   34 1
     5    2    3 1
     6    3    8 ar
     7    3    4 ar
     8    4    5 ar
     9    4   35 1
    10    5    6 ar
    11    5   36 1
    12    6    7 ar
    13    6   10 1
    14    7    8 ar
    15    7   37 1
    16    8    9 1
    17   10   11 1
    18   10   17 1
    19   10   12 1
    20   12   13 1
    21   12   38 1
    22   12   39 1
    23   13   14 2
    24   13   15 am
    25   15   16 1
    26   15   40 1
    27   16   23 1
    28   16   17 2
    29   17   18 1
    30   18   19 2
    31   18   20 1
    32   20   21 1
    33   20   41 1
    34   20   42 1
    35   21   22 1
    36   21   23 1
    37   21   24 1
    38   23   43 1
    39   23   44 1
    40   24   29 ar
    41   24   25 ar
    42   25   26 ar
    43   25   45 1
    44   26   27 ar
    45   26   46 1
    46   27   28 ar
    47   27   31 1
    48   28   29 ar
    49   28   30 1
    50   29   47 1
@<TRIPOS>MOLECULE
ZINC36076934
   61    64     0     0     0
SMALL
USER_CHARGES

@<TRIPOS>ATOM
      1 C1         -1.1752    0.9616    0.0341 C.3       1 <0>        -0.1246
      2 C2         -0.2884   -0.2569    0.0363 C.ar      1 <0>        -0.0505
      3 C3         -0.0355   -0.9299   -1.1404 C.ar      1 <0>        -0.1239
      4 C4          0.7786   -2.0491   -1.1404 C.ar      1 <0>        -0.0957
      5 C5          1.3456   -2.5019    0.0385 C.ar      1 <0>        -0.1244
      6 C6          1.1027   -1.8403    1.2232 C.ar      1 <0>        -0.0773
      7 C7          0.2850   -0.7048    1.2310 C.ar      1 <0>        -0.0852
      8 C8          0.0254    0.0105    2.4892 C.2       1 <0>         0.0325
      9 C9         -0.0565   -0.6761    3.6543 C.2       1 <0>        -0.2181
     10 C10        -0.1734    0.0095    4.9609 C.2       1 <0>         0.5762
     11 O1          0.2843    1.1283    5.0983 O.2       1 <0>        -0.5036
     12 N1         -0.7779   -0.5901    5.9902 N.am      1 <0>        -0.5241
     13 C11        -1.4283   -1.8170    5.9695 C.ar      1 <0>         0.1733
     14 C12        -2.3509   -2.0977    6.9765 C.ar      1 <0>        -0.1385
     15 C13        -3.0221   -3.3027    6.9940 C.ar      1 <0>        -0.0822
     16 C14        -2.7902   -4.2503    6.0130 C.ar      1 <0>        -0.1265
     17 C15        -1.8781   -3.9888    5.0079 C.ar      1 <0>        -0.0581
     18 C16        -1.2000   -2.7808    4.9858 C.ar      1 <0>        -0.1597
     19 S1         -0.0373   -2.4492    3.7022 S.3       1 <0>         0.0436
     20 C17        -0.7515    0.1188    7.2720 C.3       1 <0>         0.0737
     21 C18        -1.9598    1.0134    7.3762 C.2       1 <0>         0.5003
     22 O2         -2.7637    1.0548    6.4691 O.2       1 <0>        -0.5193
     23 N2         -2.1470    1.7675    8.4775 N.am      1 <0>        -0.7240
     24 C19        -3.3216    2.6371    8.5788 C.3       1 <0>         0.1526
     25 H1         -4.1713    2.1581    8.0925 H         1 <0>         0.0875
     26 C20        -3.0278    3.9729    7.8929 C.3       1 <0>        -0.1306
     27 C21        -4.2546    4.8811    7.9988 C.3       1 <0>        -0.1169
     28 C22        -4.5821    5.1260    9.4731 C.3       1 <0>        -0.1187
     29 C23        -4.8759    3.7903   10.1590 C.3       1 <0>        -0.0837
     30 H2         -5.7256    3.3112    9.6726 H         1 <0>         0.0720
     31 C24        -3.6492    2.8820   10.0531 C.3       1 <0>        -0.0923
     32 H3         -3.8584    1.9304   10.5418 H         1 <0>         0.0759
     33 C25        -2.4563    3.5544   10.7358 C.3       1 <0>        -0.1564
     34 C26        -5.2035    4.0352   11.6333 C.3       1 <0>        -0.1495
     35 H4         -0.5694    1.8516   -0.1363 H         1 <0>         0.0778
     36 H5         -1.9170    0.8697   -0.7592 H         1 <0>         0.0736
     37 H6         -1.6806    1.0449    0.9962 H         1 <0>         0.0687
     38 H7         -0.4741   -0.5830   -2.0643 H         1 <0>         0.1281
     39 H8          0.9722   -2.5723   -2.0652 H         1 <0>         0.1272
     40 H9          1.9798   -3.3760    0.0301 H         1 <0>         0.1286
     41 H10         1.5455   -2.1950    2.1422 H         1 <0>         0.1267
     42 H11        -0.1000    1.0832    2.4846 H         1 <0>         0.1482
     43 H12        -2.5417   -1.3665    7.7480 H         1 <0>         0.1245
     44 H13        -3.7344   -3.5079    7.7794 H         1 <0>         0.1317
     45 H14        -3.3204   -5.1910    6.0323 H         1 <0>         0.1343
     46 H15        -1.6937   -4.7260    4.2404 H         1 <0>         0.1368
     47 H16        -0.7635   -0.6044    8.0874 H         1 <0>         0.1189
     48 H17         0.1539    0.7223    7.3349 H         1 <0>         0.1266
     49 H18        -1.5040    1.7344    9.2030 H         1 <0>         0.4001
     50 H19        -2.1781    4.4519    8.3792 H         1 <0>         0.0677
     51 H20        -2.7945    3.7984    6.8426 H         1 <0>         0.0657
     52 H21        -4.0453    5.8327    7.5101 H         1 <0>         0.0657
     53 H22        -5.1043    4.4021    7.5125 H         1 <0>         0.0634
     54 H23        -3.7324    5.6050    9.9594 H         1 <0>         0.0670
     55 H24        -5.4561    5.7730    9.5485 H         1 <0>         0.0642
     56 H25        -2.2471    4.5060   10.2471 H         1 <0>         0.0660
     57 H26        -2.6897    3.7289   11.7861 H         1 <0>         0.0639
     58 H27        -1.5824    2.9074   10.6604 H         1 <0>         0.0506
     59 H28        -6.0774    4.6822   11.7087 H         1 <0>         0.0564
     60 H29        -5.4127    3.0835   12.1219 H         1 <0>         0.0547
     61 H30        -4.3537    4.5142   12.1196 H         1 <0>         0.0590
@<TRIPOS>BOND
     1    1    2 1
     2    1   35 1
     3    1   36 1
     4    1   37 1
     5    2    7 ar
     6    2    3 ar
     7    3    4 ar
     8    3   38 1
     9    4    5 ar
    10    4   39 1
    11    5    6 ar
    12    5   40 1
    13    6    7 ar
    14    6   41 1
    15    7    8 1
    16    8    9 2
    17    8   42 1
    18    9   19 1
    19    9   10 1
    20   10   11 2
    21   10   12 am
    22   12   13 1
    23   12   20 1
    24   13   18 ar
    25   13   14 ar
    26   14   15 ar
    27   14   43 1
    28   15   16 ar
    29   15   44 1
    30   16   17 ar
    31   16   45 1
    32   17   18 ar
    33   17   46 1
    34   18   19 1
    35   20   21 1
    36   20   47 1
    37   20   48 1
    38   21   22 2
    39   21   23 am
    40   23   24 1
    41   23   49 1
    42   24   25 1
    43   24   31 1
    44   24   26 1
    45   26   27 1
    46   26   50 1
    47   26   51 1
    48   27   28 1
    49   27   52 1
    50   27   53 1
    51   28   29 1
    52   28   54 1
    53   28   55 1
    54   29   30 1
    55   29   31 1
    56   29   34 1
    57   31   32 1
    58   31   33 1
    59   33   56 1
    60   33   57 1
    61   33   58 1
    62   34   59 1
    63   34   60 1
    64   34   61 1
@<TRIPOS>MOLECULE
ZINC46078761
   57    60     0     0     0
SMALL
USER_CHARGES

@<TRIPOS>ATOM
      1 C1         -2.7597    1.0969    0.7261 C.ar      1 <0>        -0.0497
      2 C2         -3.9682    1.7584    0.6699 C.ar      1 <0>        -0.1122
      3 C3         -4.9813    1.2875   -0.1490 C.ar      1 <0>        -0.0113
      4 C4         -4.7876    0.1502   -0.9156 C.ar      1 <0>        -0.1138
      5 C5         -3.5836   -0.5202   -0.8676 C.ar      1 <0>        -0.0784
      6 C6         -2.5582   -0.0499   -0.0447 C.ar      1 <0>        -0.1298
      7 C7         -1.2655   -0.7631    0.0105 C.2       1 <0>         0.5643
      8 O1         -0.2240   -0.1374   -0.0290 O.2       1 <0>        -0.5006
      9 N1         -1.2409   -2.1073    0.1048 N.am      1 <0>        -0.5434
     10 C8         -2.4916   -2.8778    0.1084 C.3       1 <0>         0.0867
     11 C9         -2.3898   -3.9321    1.2185 C.3       1 <0>        -0.1362
     12 C10        -1.2491   -4.8926    0.8831 C.3       1 <0>        -0.0801
     13 C11         0.0108   -4.1270    0.5742 C.ar      1 <0>        -0.1217
     14 C12        -0.0259   -2.7897    0.1948 C.ar      1 <0>         0.1802
     15 C13         1.1540   -2.1080   -0.0954 C.ar      1 <0>        -0.1657
     16 C14         2.3660   -2.7541   -0.0121 C.ar      1 <0>        -0.0669
     17 C15         2.4107   -4.0987    0.3656 C.ar      1 <0>        -0.1572
     18 C16         1.2244   -4.7783    0.6662 C.ar      1 <0>        -0.0364
     19 C17         3.7070   -4.7982    0.4583 C.2       1 <0>         0.5615
     20 O2          3.7442   -5.9682    0.7871 O.2       1 <0>        -0.5382
     21 N2          4.8494   -4.1401    0.1786 N.am      1 <0>        -0.7292
     22 C18         6.1361   -4.8345    0.2707 C.3       1 <0>         0.1255
     23 C19         7.2644   -3.8681   -0.0952 C.3       1 <0>        -0.0994
     24 C20         8.5880   -4.5824   -0.0005 C.2       1 <0>        -0.1215
     25 C21         9.0816   -5.0919   -1.0833 C.2       1 <0>        -0.1468
     26 C22        10.3815   -5.8393   -1.1442 C.3       1 <0>        -0.0917
     27 C23        11.2153   -5.5492    0.1056 C.3       1 <0>        -0.1217
     28 C24        10.3259   -5.7486    1.3393 C.3       1 <0>        -0.1211
     29 C25         9.2547   -4.6536    1.3420 C.3       1 <0>        -0.0840
     30 Cl1        -6.5001    2.1258   -0.2143 Cl        1 <0>        -0.0554
     31 H1         -1.9689    1.4675    1.3616 H         1 <0>         0.1436
     32 H2         -4.1253    2.6453    1.2659 H         1 <0>         0.1447
     33 H3         -5.5813   -0.2124   -1.5519 H         1 <0>         0.1442
     34 H4         -3.4340   -1.4072   -1.4652 H         1 <0>         0.1417
     35 H5         -3.3335   -2.2141    0.3057 H         1 <0>         0.1047
     36 H6         -2.6256   -3.3685   -0.8556 H         1 <0>         0.0850
     37 H7         -2.1865   -3.4417    2.1704 H         1 <0>         0.0755
     38 H8         -3.3264   -4.4858    1.2833 H         1 <0>         0.0916
     39 H9         -1.0711   -5.5513    1.7331 H         1 <0>         0.0861
     40 H10        -1.5269   -5.4936    0.0173 H         1 <0>         0.0825
     41 H11         1.1171   -1.0689   -0.3873 H         1 <0>         0.1814
     42 H12         3.2794   -2.2239   -0.2380 H         1 <0>         0.1283
     43 H13         1.2568   -5.8175    0.9585 H         1 <0>         0.1402
     44 H14         4.8197   -3.2067   -0.0836 H         1 <0>         0.4001
     45 H15         6.2824   -5.1950    1.2889 H         1 <0>         0.0702
     46 H16         6.1433   -5.6791   -0.4183 H         1 <0>         0.0698
     47 H17         7.1181   -3.5077   -1.1135 H         1 <0>         0.0746
     48 H18         7.2572   -3.0236    0.5937 H         1 <0>         0.0762
     49 H19         8.5229   -4.9720   -1.9998 H         1 <0>         0.1032
     50 H20        10.1808   -6.9090   -1.2044 H         1 <0>         0.0740
     51 H21        10.9363   -5.5276   -2.0291 H         1 <0>         0.0712
     52 H22        12.0612   -6.2353    0.1491 H         1 <0>         0.0650
     53 H23        11.5750   -4.5207    0.0755 H         1 <0>         0.0639
     54 H24         9.8522   -6.7293    1.2949 H         1 <0>         0.0654
     55 H25        10.9301   -5.6708    2.2431 H         1 <0>         0.0658
     56 H26         9.7163   -3.6922    1.5676 H         1 <0>         0.0736
     57 H27         8.5094   -4.8818    2.1039 H         1 <0>         0.0713
@<TRIPOS>BOND
     1    1    6 ar
     2    1    2 ar
     3    1   31 1
     4    2    3 ar
     5    2   32 1
     6    3    4 ar
     7    3   30 1
     8    4    5 ar
     9    4   33 1
    10    5    6 ar
    11    5   34 1
    12    6    7 1
    13    7    8 2
    14    7    9 am
    15    9   14 1
    16    9   10 1
    17   10   11 1
    18   10   35 1
    19   10   36 1
    20   11   12 1
    21   11   37 1
    22   11   38 1
    23   12   13 1
    24   12   39 1
    25   12   40 1
    26   13   18 ar
    27   13   14 ar
    28   14   15 ar
    29   15   16 ar
    30   15   41 1
    31   16   17 ar
    32   16   42 1
    33   17   18 ar
    34   17   19 1
    35   18   43 1
    36   19   20 2
    37   19   21 am
    38   21   22 1
    39   21   44 1
    40   22   23 1
    41   22   45 1
    42   22   46 1
    43   23   24 1
    44   23   47 1
    45   23   48 1
    46   24   29 1
    47   24   25 2
    48   25   26 1
    49   25   49 1
    50   26   27 1
    51   26   50 1
    52   26   51 1
    53   27   28 1
    54   27   52 1
    55   27   53 1
    56   28   29 1
    57   28   54 1
    58   28   55 1
    59   29   56 1
    60   29   57 1
@<TRIPOS>MOLECULE
ZINC65001989
   44    47     0     0     0
SMALL
USER_CHARGES

@<TRIPOS>ATOM
      1 C1         -0.0187    1.5258    0.0104 C.3       1 <0>        -0.1505
      2 C2          0.0021   -0.0041    0.0020 C.3       1 <0>         0.0435
      3 O1         -1.3386   -0.4987    0.0122 O.3       1 <0>        -0.2635
      4 C3         -1.4981   -1.8467    0.0064 C.ar      1 <0>         0.2141
      5 C4         -0.3894   -2.6787   -0.0028 C.ar      1 <0>        -0.2101
      6 C5         -0.5526   -4.0502   -0.0081 C.ar      1 <0>        -0.0142
      7 C6         -1.8226   -4.6048   -0.0048 C.ar      1 <0>        -0.1358
      8 C7         -2.9364   -3.7914    0.0044 C.ar      1 <0>        -0.0206
      9 C8         -2.7843   -2.4029    0.0157 C.ar      1 <0>        -0.1083
     10 C9         -3.9713   -1.5267    0.0312 C.2       1 <0>         0.4549
     11 N1         -5.2207   -2.0833    0.0459 N.am      1 <0>        -0.6371
     12 H1         -5.3117   -3.0490    0.0463 H         1 <0>         0.4168
     13 C10        -6.3260   -1.3156    0.0602 C.2       1 <0>         0.5589
     14 O2         -7.4329   -1.8256    0.0736 O.2       1 <0>        -0.5208
     15 C11        -6.1827    0.1104    0.0599 C.2       1 <0>        -0.2506
     16 C12        -7.2345    1.1263    0.0727 C.2       1 <0>        -0.0484
     17 C13        -6.8394    2.4172    0.0698 C.2       1 <0>        -0.1709
     18 S1         -5.0681    2.3562    0.0506 S.3       1 <0>         0.1480
     19 C14        -4.8627    0.5930    0.0451 C.2       1 <0>         0.1106
     20 N2         -3.8136   -0.2190    0.0363 N.2       1 <0>        -0.4534
     21 C15        -7.7138    3.6339    0.0798 C.3       1 <0>        -0.0315
     22 C16        -9.1433    3.2057   -0.2819 C.3       1 <0>        -0.0873
     23 H2         -9.1919    2.9510   -1.3406 H         1 <0>         0.0769
     24 C17        -9.5163    1.9810    0.5587 C.3       1 <0>        -0.1175
     25 C18        -8.7172    0.7650    0.0892 C.3       1 <0>        -0.0597
     26 C19       -10.1130    4.3511    0.0155 C.3       1 <0>        -0.1471
     27 Br1        -2.0294   -6.4844   -0.0134 Br        1 <0>        -0.0324
     28 H3          1.0039    1.9031    0.0027 H         1 <0>         0.0797
     29 H4         -0.5459    1.8868   -0.8726 H         1 <0>         0.0687
     30 H5         -0.5289    1.8773    0.9072 H         1 <0>         0.0686
     31 H6          0.5123   -0.3556   -0.8948 H         1 <0>         0.0669
     32 H7          0.5293   -0.3651    0.8851 H         1 <0>         0.0669
     33 H8          0.6035   -2.2538   -0.0062 H         1 <0>         0.1498
     34 H9          0.3144   -4.6941   -0.0153 H         1 <0>         0.1458
     35 H10        -3.9245   -4.2273    0.0067 H         1 <0>         0.1417
     36 H11        -7.7054    4.0839    1.0725 H         1 <0>         0.0864
     37 H12        -7.3497    4.3538   -0.6533 H         1 <0>         0.0839
     38 H13        -9.2917    2.1791    1.6067 H         1 <0>         0.0660
     39 H14       -10.5818    1.7781    0.4500 H         1 <0>         0.0720
     40 H15        -9.0359    0.4843   -0.9147 H         1 <0>         0.0787
     41 H16        -8.8827   -0.0674    0.7732 H         1 <0>         0.0864
     42 H17        -9.8361    5.2243   -0.5753 H         1 <0>         0.0578
     43 H18       -11.1269    4.0449   -0.2419 H         1 <0>         0.0595
     44 H19       -10.0668    4.6003    1.0757 H         1 <0>         0.0573
@<TRIPOS>BOND
     1    1    2 1
     2    1   28 1
     3    1   29 1
     4    1   30 1
     5    2    3 1
     6    2   31 1
     7    2   32 1
     8    3    4 1
     9    4    9 ar
    10    4    5 ar
    11    5    6 ar
    12    5   33 1
    13    6    7 ar
    14    6   34 1
    15    7    8 ar
    16    7   27 1
    17    8    9 ar
    18    8   35 1
    19    9   10 1
    20   10   20 2
    21   10   11 1
    22   11   12 1
    23   11   13 am
    24   13   14 2
    25   13   15 1
    26   15   19 2
    27   15   16 1
    28   16   25 1
    29   16   17 2
    30   17   18 1
    31   17   21 1
    32   18   19 1
    33   19   20 1
    34   21   22 1
    35   21   36 1
    36   21   37 1
    37   22   23 1
    38   22   24 1
    39   22   26 1
    40   24   25 1
    41   24   38 1
    42   24   39 1
    43   25   40 1
    44   25   41 1
    45   26   42 1
    46   26   43 1
    47   26   44 1
@<TRIPOS>MOLECULE
ZINC04980654
   55    59     0     0     0
SMALL
USER_CHARGES
(4-fluorophenyl)-N-[2-(o-tolyl)ethyl]BLAHamine
@<TRIPOS>ATOM
      1 C1          0.0021   -0.0041    0.0020 C.3       1 <0>        -0.1184
      2 C2         -0.0184    1.5028    0.0103 C.ar      1 <0>        -0.0786
      3 C3         -1.2250    2.1777    0.0197 C.ar      1 <0>        -0.1186
      4 C4         -1.2437    3.5597    0.0322 C.ar      1 <0>        -0.1162
      5 C5         -0.0559    4.2672    0.0247 C.ar      1 <0>        -0.1226
      6 C6          1.1503    3.5925    0.0100 C.ar      1 <0>        -0.1084
      7 C7          1.1691    2.2101    0.0028 C.ar      1 <0>        -0.0813
      8 C8          2.4842    1.4744   -0.0138 C.3       1 <0>        -0.0828
      9 C9          2.8541    1.1235   -1.4563 C.3       1 <0>         0.0570
     10 N1          4.1361    0.4064   -1.4725 N.pl3     1 <0>        -0.6035
     11 C10         4.5002    0.0743   -2.7598 C.2       1 <0>         0.3899
     12 C11         5.6746   -0.5983   -2.9964 C.2       1 <0>        -0.2200
     13 C12         6.0164   -0.9315   -4.3010 C.2       1 <0>         0.2430
     14 N2          5.2209   -0.5869   -5.2992 N.2       1 <0>        -0.4989
     15 C13         4.0772    0.0763   -5.0873 C.2       1 <0>         0.2951
     16 N3          3.6984    0.4162   -3.8136 N.pl3     1 <0>        -0.3318
     17 N4          2.4758    1.0919   -3.8938 N.2       1 <0>        -0.3129
     18 C14         2.1148    1.1677   -5.1619 C.2       1 <0>         0.1613
     19 C15         3.0916    0.5429   -5.9432 C.2       1 <0>        -0.2669
     20 C16         0.8779    1.8098   -5.6729 C.ar      1 <0>        -0.0346
     21 C17         0.6142    1.8282   -7.0408 C.ar      1 <0>        -0.0585
     22 C18        -0.5394    2.4215   -7.5111 C.ar      1 <0>        -0.1546
     23 C19        -1.4297    3.0076   -6.6261 C.ar      1 <0>         0.1126
     24 C20        -1.1685    2.9965   -5.2655 C.ar      1 <0>        -0.1553
     25 C21        -0.0199    2.4007   -4.7863 C.ar      1 <0>        -0.0548
     26 F1         -2.5555    3.5920   -7.0911 F         1 <0>        -0.1358
     27 C22         7.2789   -1.6826   -4.6356 C.3       1 <0>        -0.0726
     28 C23         8.2657   -1.6160   -3.4716 C.3       1 <0>        -0.1206
     29 C24         7.5387   -2.0445   -2.1919 C.3       1 <0>        -0.1218
     30 C25         6.5382   -0.9529   -1.8158 C.3       1 <0>        -0.0492
     31 H1          0.0168   -0.3729    1.0276 H         1 <0>         0.0715
     32 H2         -0.8878   -0.3767   -0.5053 H         1 <0>         0.0673
     33 H3          0.8920   -0.3525   -0.5222 H         1 <0>         0.0628
     34 H4         -2.1529    1.6251    0.0211 H         1 <0>         0.1213
     35 H5         -2.1862    4.0869    0.0434 H         1 <0>         0.1218
     36 H6         -0.0705    5.3471    0.0299 H         1 <0>         0.1217
     37 H7          2.0782    4.1451    0.0037 H         1 <0>         0.1207
     38 H8          3.2601    2.1075    0.4165 H         1 <0>         0.0824
     39 H9          2.3959    0.5592    0.5716 H         1 <0>         0.0747
     40 H10         2.0782    0.4903   -1.8867 H         1 <0>         0.0726
     41 H11         2.9424    2.0387   -2.0417 H         1 <0>         0.1004
     42 H12         4.0997   -0.4127   -0.8843 H         1 <0>         0.3759
     43 H13         3.0803    0.4421   -7.0184 H         1 <0>         0.1627
     44 H14         1.3097    1.3752   -7.7318 H         1 <0>         0.1414
     45 H15        -0.7466    2.4327   -8.5710 H         1 <0>         0.1427
     46 H16        -1.8648    3.4551   -4.5790 H         1 <0>         0.1399
     47 H17         0.1831    2.3928   -3.7256 H         1 <0>         0.1385
     48 H18         7.0339   -2.7248   -4.8402 H         1 <0>         0.0957
     49 H19         7.7365   -1.2408   -5.5207 H         1 <0>         0.0952
     50 H20         9.1014   -2.2897   -3.6611 H         1 <0>         0.0794
     51 H21         8.6350   -0.5963   -3.3625 H         1 <0>         0.0710
     52 H22         7.0101   -2.9815   -2.3670 H         1 <0>         0.0684
     53 H23         8.2615   -2.1766   -1.3867 H         1 <0>         0.0769
     54 H24         5.9087   -1.3069   -0.9994 H         1 <0>         0.0718
     55 H25         7.0796   -0.0634   -1.4935 H         1 <0>         0.0828
@<TRIPOS>BOND
     1    1    2 1
     2    1   31 1
     3    1   32 1
     4    1   33 1
     5    2    7 ar
     6    2    3 ar
     7    3    4 ar
     8    3   34 1
     9    4    5 ar
    10    4   35 1
    11    5    6 ar
    12    5   36 1
    13    6    7 ar
    14    6   37 1
    15    7    8 1
    16    8    9 1
    17    8   38 1
    18    8   39 1
    19    9   10 1
    20    9   40 1
    21    9   41 1
    22   10   11 1
    23   10   42 1
    24   11   16 1
    25   11   12 2
    26   12   30 1
    27   12   13 1
    28   13   14 2
    29   13   27 1
    30   14   15 1
    31   15   19 2
    32   15   16 1
    33   16   17 1
    34   17   18 2
    35   18   19 1
    36   18   20 1
    37   19   43 1
    38   20   25 ar
    39   20   21 ar
    40   21   22 ar
    41   21   44 1
    42   22   23 ar
    43   22   45 1
    44   23   24 ar
    45   23   26 1
    46   24   25 ar
    47   24   46 1
    48   25   47 1
    49   27   28 1
    50   27   48 1
    51   27   49 1
    52   28   29 1
    53   28   50 1
    54   28   51 1
    55   29   30 1
    56   29   52 1
    57   29   53 1
    58   30   54 1
    59   30   55 1
@<TRIPOS>MOLECULE
ZINC07278203
   32    33     0     0     0
SMALL
USER_CHARGES
4-bromo-3-methyl-N-[2-nitro-4-(trifluoromethyl)phenyl]-aniline
@<TRIPOS>ATOM
      1 C1          0.8652   -1.7176   -2.4321 C.3       1 <0>        -0.1289
      2 C2         -0.4376   -0.9612   -2.3967 C.ar      1 <0>        -0.0054
      3 C3         -0.8259   -0.3094   -1.2425 C.ar      1 <0>        -0.1673
      4 C4         -2.0291    0.3836   -1.2092 C.ar      1 <0>         0.2392
      5 C5         -2.8336    0.4281   -2.3411 C.ar      1 <0>        -0.1961
      6 C6         -2.4402   -0.2254   -3.4921 C.ar      1 <0>        -0.0356
      7 C7         -1.2435   -0.9198   -3.5205 C.ar      1 <0>        -0.1375
      8 Br1        -0.7083   -1.8134   -5.0988 Br        1 <0>        -0.0493
      9 N1         -2.4274    1.0392   -0.0409 N.pl3     1 <0>        -0.6980
     10 C8         -3.5927    1.8098   -0.0350 C.ar      1 <0>         0.2489
     11 C9         -3.5115    3.1956   -0.0960 C.ar      1 <0>        -0.1203
     12 C10        -4.6652    3.9541   -0.0899 C.ar      1 <0>        -0.0113
     13 C11        -5.9008    3.3361   -0.0236 C.ar      1 <0>        -0.1845
     14 C12        -5.9853    1.9573    0.0373 C.ar      1 <0>         0.0022
     15 C13        -4.8354    1.1922    0.0262 C.ar      1 <0>        -0.0569
     16 N2         -4.9271   -0.2841    0.0847 N.pl3     1 <0>         0.0281
     17 O1         -6.0141   -0.8298    0.0202 O.2       1 <0>        -0.1596
     18 O2         -3.9155   -0.9531    0.1974 O.3       1 <0>        -0.1221
     19 C14        -7.1578    4.1672   -0.0181 C.3       1 <0>         0.5158
     20 F1         -6.8205    5.5233   -0.0866 F         1 <0>        -0.1689
     21 F2         -7.9469    3.8266   -1.1220 F         1 <0>        -0.1675
     22 F3         -7.8729    3.9235    1.1593 F         1 <0>        -0.1681
     23 H1          0.6949   -2.7492   -2.1241 H         1 <0>         0.0828
     24 H2          1.2667   -1.7026   -3.4454 H         1 <0>         0.0794
     25 H3          1.5765   -1.2483   -1.7525 H         1 <0>         0.0737
     26 H4         -0.1966   -0.3424   -0.3654 H         1 <0>         0.1356
     27 H5         -3.7676    0.9699   -2.3195 H         1 <0>         0.1145
     28 H6         -3.0672   -0.1948   -4.3709 H         1 <0>         0.1334
     29 H7         -1.8947    0.9592    0.7658 H         1 <0>         0.4240
     30 H8         -2.5470    3.6788   -0.1485 H         1 <0>         0.1658
     31 H9         -4.6028    5.0313   -0.1373 H         1 <0>         0.1651
     32 H10        -6.9517    1.4779    0.0889 H         1 <0>         0.1688
@<TRIPOS>BOND
     1    1    2 1
     2    1   23 1
     3    1   24 1
     4    1   25 1
     5    2    7 ar
     6    2    3 ar
     7    3    4 ar
     8    3   26 1
     9    4    5 ar
    10    4    9 1
    11    5    6 ar
    12    5   27 1
    13    6    7 ar
    14    6   28 1
    15    7    8 1
    16    9   10 1
    17    9   29 1
    18   10   15 ar
    19   10   11 ar
    20   11   12 ar
    21   11   30 1
    22   12   13 ar
    23   12   31 1
    24   13   14 ar
    25   13   19 1
    26   14   15 ar
    27   14   32 1
    28   15   16 1
    29   16   17 2
    30   16   18 1
    31   19   20 1
    32   19   21 1
    33   19   22 1
@<TRIPOS>MOLECULE
ZINC22627996
   44    47     0     0     0
SMALL
USER_CHARGES
3-ethyl-2-[[4-(trifluoromethyl)phenyl]methylsulfanyl]-5H-pyrimido[5,6-b]indol-4-one
@<TRIPOS>ATOM
      1 C1         -0.7527    1.5927   -1.2315 C.3       1 <0>        -0.1711
      2 C2         -0.0127    1.0858    0.0080 C.3       1 <0>         0.0846
      3 N1         -0.6984    1.5583    1.2133 N.am      1 <0>        -0.5031
      4 C3         -0.3455    2.7378    1.7677 C.2       1 <0>         0.5587
      5 O1          0.5403    3.4169    1.2754 O.2       1 <0>        -0.5305
      6 C4         -1.0255    3.1706    2.9255 C.2       1 <0>        -0.0427
      7 C5         -2.0259    2.3552    3.4520 C.2       1 <0>         0.1271
      8 C6         -2.5451    3.0467    4.6405 C.ar      1 <0>        -0.1035
      9 C7         -3.5366    2.7405    5.5736 C.ar      1 <0>        -0.0424
     10 C8         -3.7985    3.6064    6.5976 C.ar      1 <0>        -0.1528
     11 C9         -3.0847    4.7907    6.7174 C.ar      1 <0>        -0.0709
     12 C10        -2.1025    5.1128    5.8076 C.ar      1 <0>        -0.1419
     13 C11        -1.8190    4.2444    4.7557 C.ar      1 <0>         0.1601
     14 N2         -0.9124    4.3015    3.7188 N.pl3     1 <0>        -0.5726
     15 H1         -0.1722    5.0761    3.4699 H         1 <0>         0.4545
     16 N3         -2.3239    1.1908    2.8535 N.2       1 <0>        -0.4901
     17 C12        -1.6860    0.8014    1.7725 C.2       1 <0>         0.3317
     18 S1         -2.1166   -0.7362    1.0275 S.3       1 <0>         0.0148
     19 C13        -3.4283   -1.2742    2.1527 C.3       1 <0>        -0.0738
     20 C14        -3.9633   -2.6081    1.6993 C.ar      1 <0>        -0.0525
     21 C15        -5.0246   -2.6627    0.8152 C.ar      1 <0>        -0.0998
     22 C16        -5.5126   -3.8862    0.3958 C.ar      1 <0>        -0.0684
     23 C17        -4.9454   -5.0551    0.8680 C.ar      1 <0>        -0.1743
     24 C18        -3.8872   -5.0005    1.7557 C.ar      1 <0>        -0.0683
     25 C19        -3.3965   -3.7770    2.1717 C.ar      1 <0>        -0.1001
     26 C20        -5.4805   -6.3889    0.4145 C.3       1 <0>         0.5072
     27 F1         -6.4936   -6.8053    1.2847 F         1 <0>        -0.1748
     28 F2         -5.9978   -6.2683   -0.8798 F         1 <0>        -0.1756
     29 F3         -4.4466   -7.3315    0.4174 F         1 <0>        -0.1757
     30 H2         -0.2379    1.2379   -2.1365 H         1 <0>         0.0844
     31 H3         -0.7675    2.6926   -1.2254 H         1 <0>         0.0651
     32 H4         -1.7847    1.2120   -1.2237 H         1 <0>         0.0679
     33 H5          0.0021   -0.0141    0.0019 H         1 <0>         0.1016
     34 H6          1.0193    1.4665    0.0002 H         1 <0>         0.1090
     35 H7         -4.0962    1.8209    5.4863 H         1 <0>         0.1298
     36 H8         -4.5664    3.3679    7.3185 H         1 <0>         0.1300
     37 H9         -3.3019    5.4661    7.5316 H         1 <0>         0.1328
     38 H10        -1.5532    6.0371    5.9091 H         1 <0>         0.1290
     39 H11        -3.0222   -1.3688    3.1706 H         1 <0>         0.1170
     40 H12        -4.2410   -0.5329    2.1496 H         1 <0>         0.1172
     41 H13        -5.4704   -1.7494    0.4495 H         1 <0>         0.1404
     42 H14        -6.3391   -3.9288   -0.2980 H         1 <0>         0.1407
     43 H15        -3.4441   -5.9137    2.1246 H         1 <0>         0.1407
     44 H16        -2.5700   -3.7343    2.8656 H         1 <0>         0.1404
@<TRIPOS>BOND
     1    1    2 1
     2    1   30 1
     3    1   31 1
     4    1   32 1
     5    2    3 1
     6    2   33 1
     7    2   34 1
     8    3   17 1
     9    3    4 am
    10    4    5 2
    11    4    6 1
    12    6   14 1
    13    6    7 2
    14    7    8 1
    15    7   16 1
    16    8   13 ar
    17    8    9 ar
    18    9   10 ar
    19    9   35 1
    20   10   11 ar
    21   10   36 1
    22   11   12 ar
    23   11   37 1
    24   12   13 ar
    25   12   38 1
    26   13   14 1
    27   14   15 1
    28   16   17 2
    29   17   18 1
    30   18   19 1
    31   19   20 1
    32   19   39 1
    33   19   40 1
    34   20   25 ar
    35   20   21 ar
    36   21   22 ar
    37   21   41 1
    38   22   23 ar
    39   22   42 1
    40   23   24 ar
    41   23   26 1
    42   24   25 ar
    43   24   43 1
    44   25   44 1
    45   26   27 1
    46   26   28 1
    47   26   29 1
@<TRIPOS>MOLECULE
ZINC05541096
   45    48     0     0     0
SMALL
USER_CHARGES

@<TRIPOS>ATOM
      1 C1          0.6726    1.6399   -0.9793 C.3       1 <0>        -0.1184
      2 C2          0.5376    0.1590   -0.7352 C.ar      1 <0>        -0.0753
      3 C3          0.3924   -0.7071   -1.8028 C.ar      1 <0>        -0.1244
      4 C4          0.2686   -2.0655   -1.5789 C.ar      1 <0>        -0.0949
      5 C5          0.2905   -2.5580   -0.2874 C.ar      1 <0>        -0.1261
      6 C6          0.4366   -1.6920    0.7802 C.ar      1 <0>        -0.0893
      7 C7          0.5647   -0.3340    0.5560 C.ar      1 <0>        -0.1228
      8 C8          0.1545   -4.0389   -0.0432 C.3       1 <0>         0.1574
      9 N1          1.4826   -4.6572   -0.0402 N.am      1 <0>        -0.5366
     10 C9          2.1140   -5.1620   -1.1709 C.ar      1 <0>         0.1699
     11 C10         1.7161   -5.2250   -2.5020 C.ar      1 <0>        -0.1315
     12 C11         2.5480   -5.7891   -3.4476 C.ar      1 <0>        -0.0736
     13 C12         3.7844   -6.2976   -3.0860 C.ar      1 <0>        -0.1349
     14 C13         4.1965   -6.2438   -1.7697 C.ar      1 <0>        -0.0720
     15 C14         3.3656   -5.6770   -0.8095 C.ar      1 <0>        -0.1379
     16 C15         3.4981   -5.4664    0.6506 C.2       1 <0>        -0.0144
     17 N2          4.5137   -5.7953    1.4174 N.2       1 <0>        -0.1137
     18 N3          5.5959   -6.2594    0.8907 N.pl3     1 <0>        -0.4908
     19 C16         6.6261   -6.7252    1.7089 C.ar      1 <0>         0.1700
     20 C17         6.4852   -6.6950    3.0913 C.ar      1 <0>        -0.1225
     21 C18         7.5061   -7.1570    3.8980 C.ar      1 <0>        -0.0771
     22 C19         8.6688   -7.6498    3.3314 C.ar      1 <0>        -0.0571
     23 C20         8.8121   -7.6811    1.9551 C.ar      1 <0>        -0.0753
     24 C21         7.7928   -7.2255    1.1429 C.ar      1 <0>        -0.1440
     25 Cl1         9.9503   -8.2293    4.3492 Cl        1 <0>        -0.0641
     26 C22         2.2473   -4.8032    1.0552 C.2       1 <0>         0.5937
     27 O1          1.9561   -4.4510    2.1839 O.2       1 <0>        -0.4831
     28 H1          1.7258    1.8940   -1.0989 H         1 <0>         0.0720
     29 H2          0.1286    1.9100   -1.8844 H         1 <0>         0.0680
     30 H3          0.2609    2.1870   -0.1311 H         1 <0>         0.0681
     31 H4          0.3753   -0.3223   -2.8118 H         1 <0>         0.1238
     32 H5          0.1544   -2.7421   -2.4129 H         1 <0>         0.1215
     33 H6          0.4533   -2.0767    1.7892 H         1 <0>         0.1276
     34 H7          0.6826    0.3422    1.3898 H         1 <0>         0.1241
     35 H8         -0.3261   -4.2055    0.9208 H         1 <0>         0.1040
     36 H9         -0.4513   -4.4832   -0.8329 H         1 <0>         0.0990
     37 H10         0.7540   -4.8321   -2.7962 H         1 <0>         0.1306
     38 H11         2.2318   -5.8347   -4.4793 H         1 <0>         0.1358
     39 H12         4.4268   -6.7370   -3.8348 H         1 <0>         0.1338
     40 H13         5.1602   -6.6408   -1.4866 H         1 <0>         0.1158
     41 H14         5.6937   -6.2846   -0.0740 H         1 <0>         0.3935
     42 H15         5.5784   -6.3103    3.5340 H         1 <0>         0.1488
     43 H16         7.3973   -7.1336    4.9723 H         1 <0>         0.1424
     44 H17         9.7206   -8.0662    1.5160 H         1 <0>         0.1428
     45 H18         7.9034   -7.2543    0.0690 H         1 <0>         0.1376
@<TRIPOS>BOND
     1    1    2 1
     2    1   28 1
     3    1   29 1
     4    1   30 1
     5    2    7 ar
     6    2    3 ar
     7    3    4 ar
     8    3   31 1
     9    4    5 ar
    10    4   32 1
    11    5    6 ar
    12    5    8 1
    13    6    7 ar
    14    6   33 1
    15    7   34 1
    16    8    9 1
    17    8   35 1
    18    8   36 1
    19    9   26 am
    20    9   10 1
    21   10   15 ar
    22   10   11 ar
    23   11   12 ar
    24   11   37 1
    25   12   13 ar
    26   12   38 1
    27   13   14 ar
    28   13   39 1
    29   14   15 ar
    30   14   40 1
    31   15   16 1
    32   16   17 2
    33   16   26 1
    34   17   18 1
    35   18   19 1
    36   18   41 1
    37   19   24 ar
    38   19   20 ar
    39   20   21 ar
    40   20   42 1
    41   21   22 ar
    42   21   43 1
    43   22   23 ar
    44   22   25 1
    45   23   24 ar
    46   23   44 1
    47   24   45 1
    48   26   27 2
@<TRIPOS>MOLECULE
ZINC59291006
   57    59     0     0     0
SMALL
USER_CHARGES

@<TRIPOS>ATOM
      1 C1         -0.0187    1.5258    0.0104 C.3       1 <0>        -0.1383
      2 C2          0.0021   -0.0041    0.0020 C.3       1 <0>        -0.0316
      3 C3          0.7421   -0.5109    1.2415 C.3       1 <0>        -0.1386
      4 C4         -1.4333   -0.5336    0.0129 C.3       1 <0>        -0.1453
      5 C5          0.7074   -0.4901   -1.2379 C.ar      1 <0>        -0.0636
      6 C6          0.0361   -1.2843   -2.1485 C.ar      1 <0>        -0.1249
      7 C7          0.6831   -1.7301   -3.2859 C.ar      1 <0>        -0.0893
      8 C8          2.0014   -1.3813   -3.5127 C.ar      1 <0>        -0.1157
      9 C9          2.6724   -0.5863   -2.6025 C.ar      1 <0>        -0.1044
     10 C10         2.0241   -0.1370   -1.4673 C.ar      1 <0>        -0.1206
     11 C11         2.7070   -1.8681   -4.7521 C.3       1 <0>         0.1731
     12 N1          2.5202   -0.8976   -5.8335 N.am      1 <0>        -0.6271
     13 C12         3.4808    0.1940   -6.0122 C.3       1 <0>         0.0777
     14 C13         1.4645   -1.0090   -6.6640 C.2       1 <0>         0.7079
     15 O1          0.6672   -1.9149   -6.5156 O.2       1 <0>        -0.5831
     16 N2          1.2926   -0.1161   -7.6588 N.am      1 <0>        -0.7487
     17 C14         0.1451   -0.2371   -8.5615 C.3       1 <0>         0.1469
     18 C15         0.1855    0.8930   -9.5921 C.3       1 <0>        -0.1380
     19 H1          1.1451    0.8847  -10.1089 H         1 <0>         0.0932
     20 C16        -0.9475    0.7086  -10.6047 C.3       1 <0>        -0.0696
     21 C17        -1.0960    1.9592  -11.4336 C.ar      1 <0>        -0.1594
     22 C18        -1.7855    1.8859  -12.6326 C.ar      1 <0>        -0.0838
     23 C19        -1.9444    3.0126  -13.4153 C.ar      1 <0>        -0.1503
     24 C20        -1.4139    4.2212  -13.0026 C.ar      1 <0>        -0.0871
     25 C21        -0.7244    4.2998  -11.8101 C.ar      1 <0>        -0.1480
     26 C22        -0.5613    3.1663  -11.0196 C.ar      1 <0>         0.1288
     27 O2          0.1321    3.2811   -9.8571 O.3       1 <0>        -0.3140
     28 C23        -0.0111    2.2418   -8.8883 C.3       1 <0>         0.0669
     29 H2          1.0039    1.9031    0.0027 H         1 <0>         0.0564
     30 H3         -0.5459    1.8868   -0.8726 H         1 <0>         0.0554
     31 H4         -0.5289    1.8773    0.9072 H         1 <0>         0.0591
     32 H5          0.2319   -0.1594    2.1383 H         1 <0>         0.0589
     33 H6          0.7568   -1.6008    1.2356 H         1 <0>         0.0566
     34 H7          1.7647   -0.1336    1.2338 H         1 <0>         0.0567
     35 H8         -1.9605   -0.1726   -0.8702 H         1 <0>         0.0583
     36 H9         -1.4185   -1.6235    0.0069 H         1 <0>         0.0591
     37 H10        -1.9435   -0.1821    0.9097 H         1 <0>         0.0588
     38 H11        -0.9938   -1.5568   -1.9713 H         1 <0>         0.1251
     39 H12         0.1588   -2.3512   -3.9970 H         1 <0>         0.1275
     40 H13         3.7024   -0.3141   -2.7796 H         1 <0>         0.1181
     41 H14         2.5473    0.4872   -0.7580 H         1 <0>         0.1195
     42 H15         3.7711   -1.9799   -4.5441 H         1 <0>         0.0855
     43 H16         2.2923   -2.8305   -5.0520 H         1 <0>         0.0936
     44 H17         4.2758   -0.1281   -6.6848 H         1 <0>         0.0589
     45 H18         2.9726    1.0590   -6.4383 H         1 <0>         0.0643
     46 H19         3.9086    0.4631   -5.0465 H         1 <0>         0.0760
     47 H20         1.9286    0.6066   -7.7771 H         1 <0>         0.3961
     48 H21         0.1860   -1.1981   -9.0743 H         1 <0>         0.0757
     49 H22        -0.7783   -0.1713   -7.9861 H         1 <0>         0.0720
     50 H23        -0.7174   -0.1338  -11.2571 H         1 <0>         0.0878
     51 H24        -1.8794    0.5120  -10.0745 H         1 <0>         0.0837
     52 H25        -2.2010    0.9433  -12.9569 H         1 <0>         0.1255
     53 H26        -2.4826    2.9498  -14.3495 H         1 <0>         0.1252
     54 H27        -1.5396    5.1031  -13.6132 H         1 <0>         0.1294
     55 H28        -0.3107    5.2442  -11.4888 H         1 <0>         0.1303
     56 H29        -1.0081    2.2852   -8.4497 H         1 <0>         0.0688
     57 H30         0.7396    2.3612   -8.1071 H         1 <0>         0.1044
@<TRIPOS>BOND
     1    1    2 1
     2    1   29 1
     3    1   30 1
     4    1   31 1
     5    2    3 1
     6    2    4 1
     7    2    5 1
     8    3   32 1
     9    3   33 1
    10    3   34 1
    11    4   35 1
    12    4   36 1
    13    4   37 1
    14    5   10 ar
    15    5    6 ar
    16    6    7 ar
    17    6   38 1
    18    7    8 ar
    19    7   39 1
    20    8    9 ar
    21    8   11 1
    22    9   10 ar
    23    9   40 1
    24   10   41 1
    25   11   12 1
    26   11   42 1
    27   11   43 1
    28   12   13 1
    29   12   14 am
    30   13   44 1
    31   13   45 1
    32   13   46 1
    33   14   15 2
    34   14   16 am
    35   16   17 1
    36   16   47 1
    37   17   18 1
    38   17   48 1
    39   17   49 1
    40   18   19 1
    41   18   28 1
    42   18   20 1
    43   20   21 1
    44   20   50 1
    45   20   51 1
    46   21   26 ar
    47   21   22 ar
    48   22   23 ar
    49   22   52 1
    50   23   24 ar
    51   23   53 1
    52   24   25 ar
    53   24   54 1
    54   25   26 ar
    55   25   55 1
    56   26   27 1
    57   27   28 1
    58   28   56 1
    59   28   57 1
@<TRIPOS>MOLECULE
ZINC04771148
   37    39     0     0     0
SMALL
USER_CHARGES
1-(5-chloro-2-hydroxy-phenyl)-3-(9-nitro-3,5-dioxabicyclo[4.4.0]deca-6,8,10-trien-7-yl)-prop-2-en-1-one
@<TRIPOS>ATOM
      1 C1         -2.8664    4.4346   -9.6408 C.ar      1 <0>        -0.0620
      2 C2         -2.5145    3.0990   -9.6354 C.ar      1 <0>        -0.1461
      3 C3         -2.1555    2.4795   -8.4484 C.ar      1 <0>         0.1725
      4 C4         -2.1508    3.2143   -7.2544 C.ar      1 <0>        -0.1811
      5 C5         -2.5139    4.5629   -7.2721 C.ar      1 <0>        -0.0519
      6 C6         -2.8637    5.1650   -8.4627 C.ar      1 <0>        -0.0587
      7 Cl1        -3.3090    6.8428   -8.4848 Cl        1 <0>        -0.0544
      8 C7         -1.7702    2.5646   -5.9843 C.2       1 <0>         0.4269
      9 O1         -1.4590    1.3872   -5.9719 O.2       1 <0>        -0.4360
     10 C8         -1.7668    3.3117   -4.7786 C.2       1 <0>        -0.2350
     11 C9         -1.4182    2.7167   -3.6155 C.2       1 <0>         0.0058
     12 C10        -1.4147    3.4902   -2.3673 C.ar      1 <0>        -0.1020
     13 C11        -1.7720    4.8435   -2.3765 C.ar      1 <0>        -0.0018
     14 C12        -1.7658    5.5617   -1.2013 C.ar      1 <0>        -0.0737
     15 C13        -1.4060    4.9517   -0.0105 C.ar      1 <0>         0.0035
     16 C14        -1.0501    3.6160    0.0144 C.ar      1 <0>        -0.2040
     17 C15        -1.0532    2.8762   -1.1562 C.ar      1 <0>         0.2130
     18 O2         -0.7112    1.5630   -1.1456 O.3       1 <0>        -0.3098
     19 C16        -0.0127    1.0858    0.0080 C.3       1 <0>         0.2167
     20 O3         -0.6900    1.5512    1.1815 O.3       1 <0>        -0.3744
     21 C17        -0.6554    2.9744    1.3209 C.3       1 <0>         0.1017
     22 N1         -2.1449    6.9925   -1.2107 N.pl3     1 <0>         0.0315
     23 O4         -2.4614    7.5319   -2.2559 O.2       1 <0>        -0.1540
     24 O5         -2.1405    7.6305   -0.1732 O.3       1 <0>        -0.1547
     25 O6         -1.8105    1.1672   -8.4420 O.3       1 <0>        -0.4774
     26 H1         -3.1456    4.9125  -10.5682 H         1 <0>         0.1447
     27 H2         -2.5193    2.5364  -10.5573 H         1 <0>         0.1470
     28 H3         -2.5170    5.1343   -6.3556 H         1 <0>         0.1459
     29 H4         -2.0427    4.3558   -4.7896 H         1 <0>         0.1349
     30 H5         -1.1423    1.6726   -3.6045 H         1 <0>         0.1520
     31 H6         -2.0521    5.3231   -3.3027 H         1 <0>         0.1674
     32 H7         -1.4035    5.5241    0.9053 H         1 <0>         0.1651
     33 H8          0.0021   -0.0041    0.0020 H         1 <0>         0.1566
     34 H9          1.0089    1.4657    0.0003 H         1 <0>         0.0769
     35 H10         0.3541    3.2862    1.5891 H         1 <0>         0.0871
     36 H11        -1.3511    3.2813    2.1019 H         1 <0>         0.1277
     37 H12        -2.5543    0.5656   -8.3008 H         1 <0>         0.3998
@<TRIPOS>BOND
     1    1    6 ar
     2    1    2 ar
     3    1   26 1
     4    2    3 ar
     5    2   27 1
     6    3    4 ar
     7    3   25 1
     8    4    5 ar
     9    4    8 1
    10    5    6 ar
    11    5   28 1
    12    6    7 1
    13    8    9 2
    14    8   10 1
    15   10   11 2
    16   10   29 1
    17   11   12 1
    18   11   30 1
    19   12   17 ar
    20   12   13 ar
    21   13   14 ar
    22   13   31 1
    23   14   15 ar
    24   14   22 1
    25   15   16 ar
    26   15   32 1
    27   16   21 1
    28   16   17 ar
    29   17   18 1
    30   18   19 1
    31   19   20 1
    32   19   33 1
    33   19   34 1
    34   20   21 1
    35   21   35 1
    36   21   36 1
    37   22   23 2
    38   22   24 1
    39   25   37 1
@<TRIPOS>MOLECULE
ZINC19315179
   49    51     0     0     0
SMALL
USER_CHARGES
isopropyl (4S)-2-methyl-4-(4-nitrophenyl)-5-oxo-4,6,7,8-tetrahydro-1H-quinoline-3-carboxylate
@<TRIPOS>ATOM
      1 C1         -1.3213    5.1129   -2.4218 C.3       1 <0>        -0.2321
      2 C2         -1.2236    4.2918   -1.1619 C.2       1 <0>         0.2601
      3 C3         -1.4295    2.9655   -1.2117 C.2       1 <0>        -0.2747
      4 C4         -1.3319    2.1138    0.0199 C.3       1 <0>         0.0758
      5 H1         -2.1712    1.4028    0.0155 H         1 <0>         0.1019
      6 C5         -1.4182    2.9562    1.2677 C.2       1 <0>        -0.2810
      7 C6         -1.2139    4.2895    1.2150 C.2       1 <0>         0.2207
      8 N1         -0.9254    4.9016    0.0247 N.pl3     1 <0>        -0.6457
      9 C7         -1.3009    5.1393    2.4585 C.3       1 <0>        -0.0994
     10 C8         -0.8805    4.3132    3.6761 C.3       1 <0>        -0.1133
     11 C9         -1.7959    3.0880    3.7716 C.3       1 <0>        -0.1705
     12 C10        -1.7145    2.3152    2.4834 C.2       1 <0>         0.4014
     13 O1         -1.9081    1.1157    2.4938 O.2       1 <0>        -0.4654
     14 C11        -0.0167    1.3781    0.0096 C.ar      1 <0>        -0.0082
     15 C12         1.1709    2.0855    0.0021 C.ar      1 <0>        -0.1109
     16 C13         2.3773    1.4107   -0.0141 C.ar      1 <0>        -0.0571
     17 C14         2.3960    0.0285   -0.0217 C.ar      1 <0>        -0.0496
     18 C15         1.2084   -0.6789   -0.0136 C.ar      1 <0>        -0.0532
     19 C16         0.0021   -0.0041    0.0020 C.ar      1 <0>        -0.0912
     20 N2          3.6878   -0.6940   -0.0389 N.pl3     1 <0>         0.0296
     21 O2          3.7043   -1.9119   -0.0460 O.2       1 <0>        -0.1605
     22 O3          4.7342   -0.0707   -0.0460 O.3       1 <0>        -0.1646
     23 C17        -1.7447    2.3600   -2.4506 C.2       1 <0>         0.5327
     24 O4         -1.8268    3.0397   -3.4565 O.2       1 <0>        -0.5104
     25 O5         -1.9543    1.0286   -2.5169 O.3       1 <0>        -0.3413
     26 C18        -2.2685    0.4845   -3.8004 C.3       1 <0>         0.0792
     27 C19        -1.7563   -0.9549   -3.8834 C.3       1 <0>        -0.1516
     28 C20        -3.7849    0.4987   -4.0030 C.3       1 <0>        -0.1719
     29 H2         -1.5673    4.4562   -3.2693 H         1 <0>         0.1911
     30 H3         -0.3586    5.6104   -2.6108 H         1 <0>         0.0786
     31 H4         -2.1093    5.8714   -2.3049 H         1 <0>         0.0800
     32 H5         -0.4492    5.8932    0.0291 H         1 <0>         0.4485
     33 H6         -0.6323    6.0069    2.3572 H         1 <0>         0.0928
     34 H7         -2.3356    5.4876    2.5930 H         1 <0>         0.1042
     35 H8          0.1651    3.9925    3.5583 H         1 <0>         0.0758
     36 H9         -0.9761    4.9252    4.5851 H         1 <0>         0.0894
     37 H10        -1.4705    2.4514    4.6076 H         1 <0>         0.0994
     38 H11        -2.8317    3.4166    3.9426 H         1 <0>         0.1028
     39 H12         1.1563    3.1654    0.0077 H         1 <0>         0.1333
     40 H13         3.3051    1.9634   -0.0204 H         1 <0>         0.1499
     41 H14         1.2231   -1.7588   -0.0199 H         1 <0>         0.1531
     42 H15        -0.9258   -0.5567    0.0079 H         1 <0>         0.1488
     43 H16        -1.7623    1.1309   -4.5325 H         1 <0>         0.0851
     44 H17        -1.9982   -1.3737   -4.8714 H         1 <0>         0.0801
     45 H18        -2.2365   -1.5606   -3.1008 H         1 <0>         0.0701
     46 H19        -0.6660   -0.9651   -3.7377 H         1 <0>         0.0636
     47 H20        -4.0267    0.0799   -4.9910 H         1 <0>         0.0759
     48 H21        -4.1531    1.5335   -3.9433 H         1 <0>         0.0614
     49 H22        -4.2651   -0.1071   -3.2204 H         1 <0>         0.0677
@<TRIPOS>BOND
     1    1    2 1
     2    1   29 1
     3    1   30 1
     4    1   31 1
     5    2    8 1
     6    2    3 2
     7    3    4 1
     8    3   23 1
     9    4    5 1
    10    4    6 1
    11    4   14 1
    12    6   12 1
    13    6    7 2
    14    7    8 1
    15    7    9 1
    16    8   32 1
    17    9   10 1
    18    9   33 1
    19    9   34 1
    20   10   11 1
    21   10   35 1
    22   10   36 1
    23   11   12 1
    24   11   37 1
    25   11   38 1
    26   12   13 2
    27   14   19 ar
    28   14   15 ar
    29   15   16 ar
    30   15   39 1
    31   16   17 ar
    32   16   40 1
    33   17   18 ar
    34   17   20 1
    35   18   19 ar
    36   18   41 1
    37   19   42 1
    38   20   21 2
    39   20   22 1
    40   23   24 2
    41   23   25 1
    42   25   26 1
    43   26   27 1
    44   26   28 1
    45   26   43 1
    46   27   44 1
    47   27   45 1
    48   27   46 1
    49   28   47 1
    50   28   48 1
    51   28   49 1
@<TRIPOS>MOLECULE
ZINC35516587
   38    41     0     0     0
SMALL
USER_CHARGES

@<TRIPOS>ATOM
      1 C1          2.5450   -1.2419    6.0959 C.ar      1 <0>        -0.1134
      2 C2          3.8338   -0.7274    6.0722 C.ar      1 <0>        -0.0852
      3 C3          4.6765   -1.0588    5.0272 C.ar      1 <0>        -0.0716
      4 C4          4.2238   -1.8901    4.0326 C.ar      1 <0>        -0.1577
      5 C5          2.9160   -2.4306    4.0284 C.ar      1 <0>         0.0706
      6 C6          2.0869   -2.0659    5.1161 C.ar      1 <0>        -0.0539
      7 N1          2.6172   -3.2299    2.9857 N.2       1 <0>        -0.4820
      8 C7          3.4817   -3.4957    2.0280 C.2       1 <0>         0.1915
      9 S1          4.9196   -2.5687    2.5455 S.3       1 <0>         0.0256
     10 C8          3.3077   -4.3422    0.8341 C.2       1 <0>        -0.0057
     11 C9          4.2689   -4.3490   -0.1504 C.2       1 <0>         0.0758
     12 C10         5.3164   -3.3260   -0.1580 C.2       1 <0>        -0.2564
     13 C11         5.1513   -1.9669    0.0472 C.2       1 <0>         0.1391
     14 N2          6.3597   -1.3885   -0.0423 N.pl3     1 <0>        -0.4485
     15 H1          6.5335   -0.4398    0.0614 H         1 <0>         0.4511
     16 N3          7.3292   -2.3595   -0.3067 N.2       1 <0>        -0.2595
     17 C12         6.7525   -3.5376   -0.3785 C.2       1 <0>         0.1527
     18 C13         7.4235   -4.8338   -0.6368 C.ar      1 <0>        -0.0156
     19 C14         6.9570   -5.9973   -0.0261 C.ar      1 <0>        -0.0453
     20 C15         7.5857   -7.2010   -0.2704 C.ar      1 <0>        -0.1111
     21 C16         8.6769   -7.2549   -1.1193 C.ar      1 <0>        -0.0436
     22 C17         9.1441   -6.1041   -1.7279 C.ar      1 <0>        -0.0468
     23 C18         8.5197   -4.8952   -1.4956 C.ar      1 <0>        -0.0252
     24 N4         10.3120   -6.1700   -2.6348 N.pl3     1 <0>         0.0315
     25 O1         10.8567   -7.2291   -2.8429 O.2       1 <0>        -0.1520
     26 O2         10.7213   -5.1648   -3.1673 O.3       1 <0>        -0.1528
     27 C19         2.1383   -5.1575    0.6988 C.1       1 <0>         0.2602
     28 N5          1.2106   -5.8044    0.5914 N.1       1 <0>        -0.3908
     29 H2          1.8908   -0.9848    6.9159 H         1 <0>         0.1365
     30 H3          4.1749   -0.0744    6.8619 H         1 <0>         0.1407
     31 H4          5.6823   -0.6667    4.9934 H         1 <0>         0.1339
     32 H5          1.0777   -2.4470    5.1684 H         1 <0>         0.1341
     33 H6          4.2507   -5.1090   -0.9175 H         1 <0>         0.1597
     34 H7          4.2171   -1.4619    0.2442 H         1 <0>         0.1917
     35 H8          6.1056   -5.9563    0.6370 H         1 <0>         0.1475
     36 H9          7.2256   -8.1028    0.2023 H         1 <0>         0.1563
     37 H10         9.1661   -8.1993   -1.3072 H         1 <0>         0.1587
     38 H11         8.8826   -3.9980   -1.9749 H         1 <0>         0.1597
@<TRIPOS>BOND
     1    1    6 ar
     2    1    2 ar
     3    1   29 1
     4    2    3 ar
     5    2   30 1
     6    3    4 ar
     7    3   31 1
     8    4    9 1
     9    4    5 ar
    10    5    6 ar
    11    5    7 1
    12    6   32 1
    13    7    8 2
    14    8    9 1
    15    8   10 1
    16   10   11 2
    17   10   27 1
    18   11   12 1
    19   11   33 1
    20   12   17 1
    21   12   13 2
    22   13   14 1
    23   13   34 1
    24   14   15 1
    25   14   16 1
    26   16   17 2
    27   17   18 1
    28   18   23 ar
    29   18   19 ar
    30   19   20 ar
    31   19   35 1
    32   20   21 ar
    33   20   36 1
    34   21   22 ar
    35   21   37 1
    36   22   23 ar
    37   22   24 1
    38   23   38 1
    39   24   25 2
    40   24   26 1
    41   27   28 3
@<TRIPOS>MOLECULE
ZINC04738469
   34    36     0     0     0
SMALL
USER_CHARGES

@<TRIPOS>ATOM
      1 C1         -0.0178    1.4608    0.0101 C.3       1 <0>         0.0742
      2 N1          0.0021   -0.0041    0.0020 N.am      1 <0>        -0.5374
      3 C2         -1.1359   -0.8029    0.0031 C.ar      1 <0>         0.1674
      4 C3         -2.4896   -0.4841    0.0113 C.ar      1 <0>        -0.1251
      5 C4         -3.4375   -1.4869    0.0108 C.ar      1 <0>        -0.0446
      6 C5         -3.0556   -2.8189    0.0022 C.ar      1 <0>        -0.1141
      7 C6         -1.7159   -3.1545   -0.0064 C.ar      1 <0>        -0.0176
      8 C7         -0.7537   -2.1506   -0.0060 C.ar      1 <0>        -0.0741
      9 C8          0.7274   -2.1647   -0.0132 C.2       1 <0>         0.0002
     10 N2          1.5174   -3.2150   -0.0226 N.2       1 <0>        -0.1177
     11 N3          2.7979   -3.0590   -0.0279 N.pl3     1 <0>        -0.4864
     12 C9          3.6365   -4.1741   -0.0379 C.ar      1 <0>         0.2221
     13 C10         3.0940   -5.4537   -0.0481 C.ar      1 <0>        -0.1396
     14 C11         3.9271   -6.5548   -0.0585 C.ar      1 <0>        -0.0201
     15 C12         5.2998   -6.3856   -0.0584 C.ar      1 <0>        -0.0762
     16 C13         5.8432   -5.1138   -0.0478 C.ar      1 <0>        -0.0164
     17 C14         5.0164   -4.0079   -0.0436 C.ar      1 <0>        -0.1549
     18 N4          6.1895   -7.5686   -0.0691 N.pl3     1 <0>         0.0368
     19 O1          5.7160   -8.6810   -0.0779 O.2       1 <0>        -0.1583
     20 O2          7.3896   -7.4224   -0.0689 O.3       1 <0>        -0.1598
     21 C15         1.1224   -0.7460   -0.0131 C.2       1 <0>         0.5451
     22 O3          2.2632   -0.3203   -0.0229 O.2       1 <0>        -0.5124
     23 Br1        -4.3700   -4.1785    0.0030 Br        1 <0>        -0.0347
     24 H1          1.0048    1.8381    0.0023 H         1 <0>         0.0952
     25 H2         -0.5450    1.8219   -0.8730 H         1 <0>         0.0793
     26 H3         -0.5280    1.8123    0.9069 H         1 <0>         0.0795
     27 H4         -2.7995    0.5504    0.0184 H         1 <0>         0.1423
     28 H5         -4.4868   -1.2313    0.0176 H         1 <0>         0.1465
     29 H6         -1.4168   -4.1922   -0.0131 H         1 <0>         0.1455
     30 H7          3.1777   -2.1665   -0.0248 H         1 <0>         0.4152
     31 H8          2.0222   -5.5866   -0.0475 H         1 <0>         0.1613
     32 H9          3.5063   -7.5494   -0.0664 H         1 <0>         0.1620
     33 H10         6.9156   -4.9856   -0.0470 H         1 <0>         0.1627
     34 H11         5.4415   -3.0151   -0.0398 H         1 <0>         0.1542
@<TRIPOS>BOND
     1    1    2 1
     2    1   24 1
     3    1   25 1
     4    1   26 1
     5    2   21 am
     6    2    3 1
     7    3    8 ar
     8    3    4 ar
     9    4    5 ar
    10    4   27 1
    11    5    6 ar
    12    5   28 1
    13    6    7 ar
    14    6   23 1
    15    7    8 ar
    16    7   29 1
    17    8    9 1
    18    9   10 2
    19    9   21 1
    20   10   11 1
    21   11   12 1
    22   11   30 1
    23   12   17 ar
    24   12   13 ar
    25   13   14 ar
    26   13   31 1
    27   14   15 ar
    28   14   32 1
    29   15   16 ar
    30   15   18 1
    31   16   17 ar
    32   16   33 1
    33   17   34 1
    34   18   19 2
    35   18   20 1
    36   21   22 2
@<TRIPOS>MOLECULE
ZINC65946114
   53    55     0     0     0
SMALL
USER_CHARGES

@<TRIPOS>ATOM
      1 C1         -0.5385    1.4468    0.0887 C.3       1 <0>        -0.1247
      2 C2         -0.2472   -0.0309    0.0396 C.ar      1 <0>        -0.0025
      3 C3         -0.3505   -0.7177   -1.1648 C.ar      1 <0>         0.1778
      4 C4         -0.0826   -2.0769   -1.2128 C.ar      1 <0>        -0.0309
      5 C5          0.2903   -2.7511   -0.0493 C.ar      1 <0>        -0.0138
      6 C6          0.3910   -2.0518    1.1551 C.ar      1 <0>        -0.0149
      7 C7          0.1272   -0.6976    1.1909 C.ar      1 <0>        -0.0395
      8 N1          0.2402    0.0422    2.4679 N.pl3     1 <0>         0.0288
      9 O1          0.6736    1.1709    2.4763 O.2       1 <0>        -0.1376
     10 O2         -0.1008   -0.4820    3.5025 O.3       1 <0>        -0.1478
     11 C8          0.5682   -4.1553   -0.0903 C.1       1 <0>         0.2459
     12 N2          0.7887   -5.2692   -0.1229 N.1       1 <0>        -0.3841
     13 N3         -0.7247   -0.0380   -2.3266 N.pl3     1 <0>        -0.6718
     14 C9          0.2902    0.5695   -3.1982 C.3       1 <0>         0.1418
     15 C10         0.0859    0.0543   -4.6264 C.3       1 <0>        -0.1162
     16 C11        -1.3571    0.3229   -5.0598 C.3       1 <0>        -0.1031
     17 C12        -2.3176   -0.4269   -4.1338 C.3       1 <0>        -0.1279
     18 C13        -2.1401    0.0777   -2.7032 C.3       1 <0>         0.1431
     19 C14        -1.5524   -0.1520   -6.4766 C.2       1 <0>         0.5167
     20 O3         -0.6288   -0.6555   -7.0802 O.2       1 <0>        -0.5355
     21 N4         -2.7535   -0.0171   -7.0730 N.am      1 <0>        -0.7283
     22 C15        -2.9433   -0.4787   -8.4503 C.3       1 <0>         0.1445
     23 C16        -2.5020    0.6182   -9.4213 C.3       1 <0>        -0.1283
     24 C17        -2.7003    0.1361  -10.8597 C.3       1 <0>        -0.1182
     25 C18        -4.1782   -0.1851  -11.0908 C.3       1 <0>        -0.1227
     26 C19        -4.6196   -1.2821  -10.1199 C.3       1 <0>        -0.1169
     27 C20        -4.4213   -0.8000   -8.6814 C.3       1 <0>        -0.1260
     28 H1          0.3935    2.0042   -0.0052 H         1 <0>         0.0984
     29 H2         -1.2054    1.7132   -0.7313 H         1 <0>         0.0864
     30 H3         -1.0144    1.6920    1.0383 H         1 <0>         0.0746
     31 H4         -0.1626   -2.6124   -2.1473 H         1 <0>         0.1523
     32 H5          0.6790   -2.5700    2.0579 H         1 <0>         0.1588
     33 H6          0.1835    1.6542   -3.1823 H         1 <0>         0.0618
     34 H7          1.2849    0.2929   -2.8488 H         1 <0>         0.0772
     35 H8          0.7701    0.5697   -5.3004 H         1 <0>         0.0808
     36 H9          0.2817   -1.0175   -4.6580 H         1 <0>         0.0734
     37 H10        -1.5598    1.3924   -5.0042 H         1 <0>         0.0989
     38 H11        -3.3440   -0.2540   -4.4572 H         1 <0>         0.0765
     39 H12        -2.0991   -1.4941   -4.1700 H         1 <0>         0.0724
     40 H13        -2.7484   -0.5234   -2.0273 H         1 <0>         0.0765
     41 H14        -2.4494    1.1213   -2.6461 H         1 <0>         0.0622
     42 H15        -3.4922    0.3856   -6.5903 H         1 <0>         0.3988
     43 H16        -2.3461   -1.3749   -8.6188 H         1 <0>         0.0872
     44 H17        -3.0993    1.5144   -9.2528 H         1 <0>         0.0630
     45 H18        -1.4491    0.8471   -9.2567 H         1 <0>         0.0664
     46 H19        -2.3859    0.9176  -11.5515 H         1 <0>         0.0656
     47 H20        -2.1031   -0.7600  -11.0282 H         1 <0>         0.0644
     48 H21        -4.7755    0.7110  -10.9224 H         1 <0>         0.0628
     49 H22        -4.3195   -0.5286  -12.1156 H         1 <0>         0.0648
     50 H23        -5.6725   -1.5109  -10.2845 H         1 <0>         0.0680
     51 H24        -4.0223   -2.1782  -10.2883 H         1 <0>         0.0652
     52 H25        -4.7357   -1.5815   -7.9897 H         1 <0>         0.0679
     53 H26        -5.0185    0.0961   -8.5130 H         1 <0>         0.0679
@<TRIPOS>BOND
     1    1    2 1
     2    1   28 1
     3    1   29 1
     4    1   30 1
     5    2    7 ar
     6    2    3 ar
     7    3    4 ar
     8    3   13 1
     9    4    5 ar
    10    4   31 1
    11    5    6 ar
    12    5   11 1
    13    6    7 ar
    14    6   32 1
    15    7    8 1
    16    8    9 2
    17    8   10 1
    18   11   12 3
    19   13   18 1
    20   13   14 1
    21   14   15 1
    22   14   33 1
    23   14   34 1
    24   15   16 1
    25   15   35 1
    26   15   36 1
    27   16   17 1
    28   16   19 1
    29   16   37 1
    30   17   18 1
    31   17   38 1
    32   17   39 1
    33   18   40 1
    34   18   41 1
    35   19   20 2
    36   19   21 am
    37   21   22 1
    38   21   42 1
    39   22   27 1
    40   22   23 1
    41   22   43 1
    42   23   24 1
    43   23   44 1
    44   23   45 1
    45   24   25 1
    46   24   46 1
    47   24   47 1
    48   25   26 1
    49   25   48 1
    50   25   49 1
    51   26   27 1
    52   26   50 1
    53   26   51 1
    54   27   52 1
    55   27   53 1
@<TRIPOS>MOLECULE
ZINC09120075
   52    55     0     0     0
SMALL
USER_CHARGES
3-benzo[1,3]dioxol-5-yl-2-cyano-N-[3-(1-piperidylsulfonyl)phenyl]-prop-2-enamide
@<TRIPOS>ATOM
      1 C1          4.1996   -2.8009   -1.9563 C.ar      1 <0>        -0.1152
      2 C2          5.0410   -1.9223   -2.6104 C.ar      1 <0>        -0.0708
      3 C3          5.3598   -0.7034   -2.0261 C.ar      1 <0>         0.1300
      4 C4          4.8308   -0.3721   -0.7850 C.ar      1 <0>        -0.0492
      5 C5          3.9903   -1.2550   -0.1365 C.ar      1 <0>        -0.6548
      6 C6          3.6790   -2.4703   -0.7188 C.ar      1 <0>        -0.0350
      7 S1          3.3193   -0.8361    1.4380 S.o2      1 <0>         2.6905
      8 O1          4.2006    0.1183    2.0141 O.2       1 <0>        -0.9532
      9 O2          2.9973   -2.0615    2.0814 O.2       1 <0>        -0.9507
     10 N1          1.8856   -0.0530    1.1666 N.pl3     1 <0>        -0.9950
     11 C7          0.6268   -0.8054    1.0780 C.3       1 <0>         0.1186
     12 C8         -0.0727   -0.4434   -0.2360 C.3       1 <0>        -0.1369
     13 C9         -0.2411    1.0755   -0.3179 C.3       1 <0>        -0.1181
     14 C10         1.1351    1.7446   -0.3030 C.3       1 <0>        -0.1369
     15 C11         1.8482    1.4074    1.0102 C.3       1 <0>         0.1189
     16 N2          6.2117    0.1883   -2.6854 N.am      1 <0>        -0.6656
     17 C12         6.2944    0.1715   -4.0305 C.2       1 <0>         0.5798
     18 O3          5.5594   -0.5517   -4.6762 O.2       1 <0>        -0.5069
     19 C13         7.2733    1.0276   -4.7179 C.2       1 <0>        -0.1380
     20 C14         7.3578    1.0105   -6.0932 C.2       1 <0>         0.0936
     21 C15         8.4467    1.7192   -6.7687 C.ar      1 <0>        -0.1065
     22 C16         8.2713    2.1981   -8.0750 C.ar      1 <0>        -0.0581
     23 C17         9.2950    2.8684   -8.7043 C.ar      1 <0>        -0.1076
     24 C18        10.5082    3.0639   -8.0547 C.ar      1 <0>         0.0664
     25 C19        10.6931    2.5852   -6.7555 C.ar      1 <0>         0.0310
     26 C20         9.6709    1.9167   -6.1140 C.ar      1 <0>        -0.0749
     27 O4         11.9575    2.9040   -6.3504 O.3       1 <0>        -0.3032
     28 C21        12.4007    3.9348   -7.2527 C.3       1 <0>         0.2115
     29 O5         11.6559    3.6796   -8.4579 O.3       1 <0>        -0.3016
     30 C22         8.1384    1.8789   -3.9579 C.1       1 <0>         0.2372
     31 N3          8.8246    2.5542   -3.3550 N.1       1 <0>        -0.3917
     32 H1          3.9516   -3.7491   -2.4100 H         1 <0>         0.1398
     33 H2          5.4508   -2.1830   -3.5750 H         1 <0>         0.1535
     34 H3          5.0765    0.5751   -0.3281 H         1 <0>         0.1417
     35 H4          3.0246   -3.1609   -0.2076 H         1 <0>         0.1419
     36 H5         -0.0158   -0.5428    1.9184 H         1 <0>         0.0775
     37 H6          0.8380   -1.8746    1.0970 H         1 <0>         0.0914
     38 H7         -1.0521   -0.9205   -0.2702 H         1 <0>         0.0771
     39 H8          0.5301   -0.7885   -1.0760 H         1 <0>         0.0679
     40 H9         -0.7606    1.3339   -1.2407 H         1 <0>         0.0655
     41 H10        -0.8231    1.4229    0.5357 H         1 <0>         0.0658
     42 H11         1.7266    1.3790   -1.1425 H         1 <0>         0.0669
     43 H12         1.0153    2.8249   -0.3850 H         1 <0>         0.0762
     44 H13         1.3053    1.8505    1.8451 H         1 <0>         0.0777
     45 H14         2.8654    1.7983    0.9845 H         1 <0>         0.0896
     46 H15         6.7431    0.8188   -2.1746 H         1 <0>         0.4146
     47 H16         6.6210    0.4744   -6.6729 H         1 <0>         0.1742
     48 H17         7.3320    2.0443   -8.5853 H         1 <0>         0.1541
     49 H18         9.1567    3.2405   -9.7087 H         1 <0>         0.1476
     50 H19         9.8131    1.5466   -5.1094 H         1 <0>         0.1404
     51 H20        12.1599    4.9208   -6.8554 H         1 <0>         0.0905
     52 H21        13.4712    3.8467   -7.4383 H         1 <0>         0.1386
@<TRIPOS>BOND
     1    1    6 ar
     2    1    2 ar
     3    1   32 1
     4    2    3 ar
     5    2   33 1
     6    3    4 ar
     7    3   16 1
     8    4    5 ar
     9    4   34 1
    10    5    6 ar
    11    5    7 1
    12    6   35 1
    13    7    8 2
    14    7    9 2
    15    7   10 1
    16   10   15 1
    17   10   11 1
    18   11   12 1
    19   11   36 1
    20   11   37 1
    21   12   13 1
    22   12   38 1
    23   12   39 1
    24   13   14 1
    25   13   40 1
    26   13   41 1
    27   14   15 1
    28   14   42 1
    29   14   43 1
    30   15   44 1
    31   15   45 1
    32   16   17 am
    33   16   46 1
    34   17   18 2
    35   17   19 1
    36   19   20 2
    37   19   30 1
    38   20   21 1
    39   20   47 1
    40   21   26 ar
    41   21   22 ar
    42   22   23 ar
    43   22   48 1
    44   23   24 ar
    45   23   49 1
    46   24   29 1
    47   24   25 ar
    48   25   26 ar
    49   25   27 1
    50   26   50 1
    51   27   28 1
    52   28   29 1
    53   28   51 1
    54   28   52 1
    55   30   31 3
@<TRIPOS>MOLECULE
ZINC13731596
   48    53     0     0     0
SMALL
USER_CHARGES
2-(5-chloro-1H-indol-3-yl)ethyl-(4-pyridyl)BLAHone
@<TRIPOS>ATOM
      1 C1          3.6158  -11.1626   -1.2714 C.ar      1 <0>        -0.0904
      2 C2          4.9296  -10.7692   -1.4004 C.ar      1 <0>        -0.1123
      3 C3          5.2449   -9.4168   -1.4757 C.ar      1 <0>         0.0991
      4 C4          4.2139   -8.4617   -1.4132 C.ar      1 <0>        -0.0904
      5 C5          2.8865   -8.8759   -1.2877 C.ar      1 <0>        -0.0647
      6 C6          2.5965  -10.2205   -1.2153 C.ar      1 <0>        -0.0565
      7 Cl1         0.9483  -10.7406   -1.0525 Cl        1 <0>        -0.0696
      8 C7          4.8658   -7.1543   -1.5219 C.2       1 <0>        -0.1765
      9 C8          6.1846   -7.3809   -1.6292 C.2       1 <0>         0.0773
     10 N1          6.4303   -8.7266   -1.6035 N.pl3     1 <0>        -0.5904
     11 H1          7.3084   -9.1340   -1.6656 H         1 <0>         0.4211
     12 C9          4.1855   -5.8097   -1.5091 C.3       1 <0>        -0.0566
     13 C10         3.9691   -5.3613   -0.0624 C.3       1 <0>         0.0927
     14 N2          3.3078   -4.0541   -0.0500 N.am      1 <0>        -0.5079
     15 C11         1.9498   -3.9954   -0.0367 C.2       1 <0>         0.2049
     16 C12         1.2771   -2.8250   -0.0248 C.2       1 <0>        -0.2452
     17 C13         1.9778   -1.6092   -0.0255 C.2       1 <0>         0.3134
     18 C14         3.3849   -1.6360   -0.0391 C.2       1 <0>        -0.2837
     19 C15         4.0600   -2.9326   -0.0516 C.2       1 <0>         0.5661
     20 O1          5.2764   -3.0000   -0.0636 O.2       1 <0>        -0.5001
     21 C16         4.0909   -0.4195   -0.0387 C.2       1 <0>         0.2794
     22 N3          3.4308    0.7148   -0.0258 N.2       1 <0>        -0.4698
     23 C17         2.0888    0.7562   -0.0138 C.2       1 <0>         0.4712
     24 N4          1.3472   -0.3942   -0.0129 N.pl3     1 <0>        -0.3382
     25 N5          0.0021   -0.0041    0.0020 N.2       1 <0>        -0.3046
     26 C18        -0.0158    1.3136    0.0093 C.2       1 <0>         0.3144
     27 N6          1.2376    1.7726   -0.0002 N.2       1 <0>        -0.5064
     28 C19        -1.2381    2.1553    0.0199 C.ar      1 <0>         0.0207
     29 C20        -2.5093    1.5749    0.0171 C.ar      1 <0>        -0.1325
     30 C21        -3.6195    2.3945    0.0315 C.ar      1 <0>         0.0994
     31 N7         -3.4918    3.7074    0.0380 N.ar      1 <0>        -0.4711
     32 C22        -2.3107    4.2949    0.0363 C.ar      1 <0>         0.1000
     33 C23        -1.1491    3.5499    0.0270 C.ar      1 <0>        -0.1228
     34 H2          3.3758  -12.2139   -1.2129 H         1 <0>         0.1377
     35 H3          5.7140  -11.5103   -1.4434 H         1 <0>         0.1312
     36 H4          2.0919   -8.1459   -1.2432 H         1 <0>         0.1317
     37 H5          6.9398   -6.6145   -1.7221 H         1 <0>         0.1764
     38 H6          3.2225   -5.8849   -2.0141 H         1 <0>         0.0788
     39 H7          4.8107   -5.0813   -2.0256 H         1 <0>         0.0829
     40 H8          4.9322   -5.2861    0.4426 H         1 <0>         0.1088
     41 H9          3.3440   -6.0897    0.4541 H         1 <0>         0.1009
     42 H10         1.3889   -4.9183   -0.0360 H         1 <0>         0.1822
     43 H11         0.1972   -2.8244   -0.0145 H         1 <0>         0.1689
     44 H12         5.1708   -0.4188   -0.0494 H         1 <0>         0.2031
     45 H13        -2.6212    0.5008    0.0072 H         1 <0>         0.1452
     46 H14        -4.6061    1.9551    0.0328 H         1 <0>         0.1650
     47 H15        -2.2521    5.3733    0.0419 H         1 <0>         0.1662
     48 H16        -0.1854    4.0375    0.0256 H         1 <0>         0.1512
@<TRIPOS>BOND
     1    1    6 ar
     2    1    2 ar
     3    1   34 1
     4    2    3 ar
     5    2   35 1
     6    3   10 1
     7    3    4 ar
     8    4    5 ar
     9    4    8 1
    10    5    6 ar
    11    5   36 1
    12    6    7 1
    13    8    9 2
    14    8   12 1
    15    9   10 1
    16    9   37 1
    17   10   11 1
    18   12   13 1
    19   12   38 1
    20   12   39 1
    21   13   14 1
    22   13   40 1
    23   13   41 1
    24   14   19 am
    25   14   15 1
    26   15   16 2
    27   15   42 1
    28   16   17 1
    29   16   43 1
    30   17   24 1
    31   17   18 2
    32   18   19 1
    33   18   21 1
    34   19   20 2
    35   21   22 2
    36   21   44 1
    37   22   23 1
    38   23   27 2
    39   23   24 1
    40   24   25 1
    41   25   26 2
    42   26   27 1
    43   26   28 1
    44   28   33 ar
    45   28   29 ar
    46   29   30 ar
    47   29   45 1
    48   30   31 ar
    49   30   46 1
    50   31   32 ar
    51   32   33 ar
    52   32   47 1
    53   33   48 1
@<TRIPOS>MOLECULE
ZINC34908996
   41    43     0     0     0
SMALL
USER_CHARGES

@<TRIPOS>ATOM
      1 C1         -1.8345    0.4718   -1.5805 C.3       1 <0>         0.0197
      2 O1         -1.1233   -0.6248   -1.0027 O.3       1 <0>        -0.2952
      3 C2          0.0971   -0.9146   -1.5280 C.ar      1 <0>         0.0976
      4 C3          0.5979   -0.1579   -2.5689 C.ar      1 <0>        -0.1168
      5 C4          1.8551   -0.4591   -3.1068 C.ar      1 <0>        -0.0587
      6 C5          2.5972   -1.5261   -2.5859 C.ar      1 <0>        -0.0097
      7 C6          2.0894   -2.2752   -1.5474 C.ar      1 <0>        -0.0474
      8 C7          0.8448   -1.9721   -1.0114 C.ar      1 <0>         0.1674
      9 O2          0.3518   -2.7115    0.0160 O.3       1 <0>        -0.4588
     10 N1          2.8750   -3.4029   -0.9977 N.pl3     1 <0>         0.0387
     11 O3          3.9608   -3.6653   -1.4601 O.2       1 <0>        -0.1576
     12 O4          2.4309   -4.0615   -0.0863 O.3       1 <0>        -0.1319
     13 C8          2.3934    0.3412   -4.2141 C.2       1 <0>         0.0608
     14 C9          3.0832   -0.2624   -5.2150 C.2       1 <0>        -0.1930
     15 C10         3.2695   -1.6999   -5.4959 C.2       1 <0>         0.5435
     16 O5          2.7752   -2.5586   -4.7892 O.2       1 <0>        -0.4439
     17 N2          4.0003   -2.0071   -6.5543 N.am      1 <0>        -0.5708
     18 C11         4.5462   -1.0523   -7.3348 C.2       1 <0>         0.5493
     19 O6          5.2337   -1.1908   -8.3286 O.2       1 <0>        -0.3871
     20 S1          4.0093    0.4643   -6.5603 S.3       1 <0>        -0.0455
     21 C12         4.2222   -3.4166   -6.8863 C.3       1 <0>         0.1346
     22 C13         3.1300   -3.8934   -7.8087 C.ar      1 <0>        -0.1572
     23 C14         1.9680   -4.4342   -7.2849 C.ar      1 <0>         0.1386
     24 C15         0.9654   -4.8719   -8.1334 C.ar      1 <0>        -0.1569
     25 C16         1.1247   -4.7690   -9.5025 C.ar      1 <0>        -0.0629
     26 C17         2.2845   -4.2292  -10.0254 C.ar      1 <0>        -0.1257
     27 C18         3.2854   -3.7859   -9.1787 C.ar      1 <0>         0.0015
     28 Cl1         4.7389   -3.1016   -9.8363 Cl        1 <0>        -0.0219
     29 F1          1.8128   -4.5350   -5.9466 F         1 <0>        -0.1127
     30 H1         -1.2459    1.3831   -1.4741 H         1 <0>         0.0624
     31 H2         -2.0102    0.2742   -2.6380 H         1 <0>         0.0609
     32 H3         -2.7898    0.5946   -1.0702 H         1 <0>         0.1112
     33 H4          0.0212    0.6638   -2.9673 H         1 <0>         0.1575
     34 H5          3.5672   -1.7618   -2.9983 H         1 <0>         0.1582
     35 H6         -0.1700   -3.4759   -0.2643 H         1 <0>         0.4056
     36 H7          2.2404    1.4102   -4.2320 H         1 <0>         0.1689
     37 H8          5.1880   -3.5259   -7.3798 H         1 <0>         0.1193
     38 H9          4.2116   -4.0111   -5.9728 H         1 <0>         0.1205
     39 H10         0.0589   -5.2941   -7.7254 H         1 <0>         0.1452
     40 H11         0.3425   -5.1108  -10.1641 H         1 <0>         0.1470
     41 H12         2.4082   -4.1495  -11.0953 H         1 <0>         0.1451
@<TRIPOS>BOND
     1    1    2 1
     2    1   30 1
     3    1   31 1
     4    1   32 1
     5    2    3 1
     6    3    8 ar
     7    3    4 ar
     8    4    5 ar
     9    4   33 1
    10    5    6 ar
    11    5   13 1
    12    6    7 ar
    13    6   34 1
    14    7    8 ar
    15    7   10 1
    16    8    9 1
    17    9   35 1
    18   10   11 2
    19   10   12 1
    20   13   14 2
    21   13   36 1
    22   14   20 1
    23   14   15 1
    24   15   16 2
    25   15   17 am
    26   17   18 am
    27   17   21 1
    28   18   19 2
    29   18   20 1
    30   21   22 1
    31   21   37 1
    32   21   38 1
    33   22   27 ar
    34   22   23 ar
    35   23   24 ar
    36   23   29 1
    37   24   25 ar
    38   24   39 1
    39   25   26 ar
    40   25   40 1
    41   26   27 ar
    42   26   41 1
    43   27   28 1
@<TRIPOS>MOLECULE
ZINC38984346
   47    50     0     0     0
SMALL
USER_CHARGES

@<TRIPOS>ATOM
      1 C1          3.8702   -7.7572   -6.2272 C.3       1 <0>        -0.1538
      2 C2          3.1054   -7.3896   -4.9541 C.3       1 <0>         0.0507
      3 O1          3.2341   -5.9877   -4.7092 O.3       1 <0>        -0.3019
      4 C3          2.6086   -5.4935   -3.6073 C.ar      1 <0>         0.1024
      5 C4          1.8941   -6.3398   -2.7805 C.ar      1 <0>        -0.1593
      6 C5          1.2526   -5.8284   -1.6490 C.ar      1 <0>        -0.0442
      7 C6          1.3369   -4.4638   -1.3593 C.ar      1 <0>        -0.0838
      8 C7          2.0516   -3.6260   -2.1890 C.ar      1 <0>        -0.1115
      9 C8          2.6930   -4.1351   -3.3090 C.ar      1 <0>         0.1097
     10 O2          3.4009   -3.3055   -4.1205 O.3       1 <0>        -0.4837
     11 C9          0.4889   -6.7258   -0.7640 C.2       1 <0>         0.1433
     12 N1         -0.1066   -6.2488    0.2872 N.2       1 <0>        -0.1770
     13 N2         -0.7351   -7.1161    1.1902 N.pl3     1 <0>        -0.4262
     14 C10        -0.7292   -8.5916    1.1814 C.3       1 <0>         0.1515
     15 H1         -1.1859   -8.9718    0.2677 H         1 <0>         0.1711
     16 N3         -1.5449   -8.9446    2.3545 N.2       1 <0>        -0.0700
     17 N4         -1.9156   -7.8956    2.8879 N.2       1 <0>        -0.1096
     18 C11        -1.4794   -6.7910    2.2703 C.2       1 <0>         0.3638
     19 S1         -1.8195   -5.1911    2.7758 S.2       1 <0>        -0.2878
     20 C12         0.6967   -9.1256    1.3318 C.3       1 <0>        -0.0316
     21 H2          1.3493   -8.6963    0.5716 H         1 <0>         0.1631
     22 C13         0.7119  -10.6421    1.2571 C.2       1 <0>        -0.1445
     23 C14         1.1910  -11.0195    2.4581 C.2       1 <0>         0.0340
     24 N5          1.4583   -9.9304    3.2256 N.2       1 <0>        -0.1272
     25 N6          1.2166   -8.8470    2.6807 N.2       1 <0>        -0.1491
     26 C15         1.3970  -12.4260    2.8833 C.ar      1 <0>        -0.0411
     27 C16         1.0937  -13.4712    2.0130 C.ar      1 <0>        -0.0965
     28 C17         1.2877  -14.7776    2.4136 C.ar      1 <0>        -0.1204
     29 C18         1.7822  -15.0503    3.6763 C.ar      1 <0>        -0.1022
     30 C19         2.0849  -14.0167    4.5443 C.ar      1 <0>        -0.1195
     31 C20         1.8998  -12.7064    4.1523 C.ar      1 <0>        -0.0823
     32 H3          3.4600   -7.2019   -7.0707 H         1 <0>         0.0682
     33 H4          4.9235   -7.5051   -6.1040 H         1 <0>         0.0689
     34 H5          3.7721   -8.8266   -6.4141 H         1 <0>         0.0804
     35 H6          2.0522   -7.6418   -5.0774 H         1 <0>         0.0631
     36 H7          3.5157   -7.9450   -4.1107 H         1 <0>         0.0629
     37 H8          1.8314   -7.3936   -3.0084 H         1 <0>         0.1390
     38 H9          0.8420   -4.0656   -0.4859 H         1 <0>         0.1473
     39 H10         2.1160   -2.5717   -1.9641 H         1 <0>         0.1475
     40 H11         2.8793   -2.9150   -4.8351 H         1 <0>         0.3941
     41 H12         0.4244   -7.7800   -0.9894 H         1 <0>         0.1288
     42 H13         0.4088  -11.2713    0.4333 H         1 <0>         0.1865
     43 H14         0.7072  -13.2594    1.0270 H         1 <0>         0.1244
     44 H15         1.0527  -15.5885    1.7401 H         1 <0>         0.1296
     45 H16         1.9321  -16.0741    3.9859 H         1 <0>         0.1280
     46 H17         2.4704  -14.2353    5.5292 H         1 <0>         0.1305
     47 H18         2.1407  -11.9000    4.8292 H         1 <0>         0.1348
@<TRIPOS>BOND
     1    1    2 1
     2    1   32 1
     3    1   33 1
     4    1   34 1
     5    2    3 1
     6    2   35 1
     7    2   36 1
     8    3    4 1
     9    4    9 ar
    10    4    5 ar
    11    5    6 ar
    12    5   37 1
    13    6    7 ar
    14    6   11 1
    15    7    8 ar
    16    7   38 1
    17    8    9 ar
    18    8   39 1
    19    9   10 1
    20   10   40 1
    21   11   12 2
    22   11   41 1
    23   12   13 1
    24   13   18 1
    25   13   14 1
    26   14   15 1
    27   14   16 1
    28   14   20 1
    29   16   17 2
    30   17   18 1
    31   18   19 2
    32   20   21 1
    33   20   25 1
    34   20   22 1
    35   22   23 2
    36   22   42 1
    37   23   24 1
    38   23   26 1
    39   24   25 2
    40   26   31 ar
    41   26   27 ar
    42   27   28 ar
    43   27   43 1
    44   28   29 ar
    45   28   44 1
    46   29   30 ar
    47   29   45 1
    48   30   31 ar
    49   30   46 1
    50   31   47 1
@<TRIPOS>MOLECULE
ZINC14282053
   47    51     0     0     0
SMALL
USER_CHARGES

@<TRIPOS>ATOM
      1 C1         -0.0167    1.3768    0.0096 C.ar      1 <0>        -0.1472
      2 C2          1.1713    2.0847    0.0021 C.ar      1 <0>        -0.0648
      3 C3          2.3749    1.4102   -0.0173 C.ar      1 <0>        -0.1475
      4 C4          2.3982    0.0195   -0.0273 C.ar      1 <0>         0.1593
      5 C5          1.2066   -0.6870   -0.0134 C.ar      1 <0>        -0.1772
      6 C6          0.0021   -0.0041    0.0020 C.ar      1 <0>        -0.0626
      7 C7          1.1962   -2.1899   -0.0083 C.3       1 <0>         0.1756
      8 C8          2.5500   -2.7401   -0.4468 C.3       1 <0>        -0.1601
      9 C9          3.6470   -1.9890    0.3203 C.3       1 <0>         0.0684
     10 O1          3.6002   -0.6119   -0.0547 O.3       1 <0>        -0.3077
     11 C10         0.0980   -2.7137   -0.9040 C.2       1 <0>         0.5373
     12 O2         -0.0202   -2.5412   -2.0982 O.2       1 <0>        -0.4314
     13 N1         -0.7233   -3.4144   -0.0947 N.am      1 <0>        -0.5793
     14 C11        -0.2946   -3.4019    1.1734 C.2       1 <0>         0.7042
     15 O3         -0.8672   -3.9640    2.0862 O.2       1 <0>        -0.5143
     16 N2          0.8431   -2.6968    1.3238 N.am      1 <0>        -0.7119
     17 C12        -1.9345   -4.1031   -0.5475 C.3       1 <0>         0.2074
     18 C13        -1.5897   -5.5142   -0.9487 C.2       1 <0>         0.2672
     19 N3         -1.6047   -6.5538   -0.1641 N.2       1 <0>        -0.5025
     20 C14        -1.2437   -7.6533   -0.8496 C.2       1 <0>         0.2931
     21 N4         -0.9947   -7.3108   -2.0894 N.2       1 <0>        -0.3198
     22 O4         -1.2218   -5.9118   -2.1735 O.3       1 <0>        -0.0839
     23 C15        -1.1434   -9.0259   -0.2938 C.ar      1 <0>        -0.0398
     24 C16        -1.4414   -9.2609    1.0470 C.ar      1 <0>        -0.0314
     25 C17        -1.3464  -10.5390    1.5586 C.ar      1 <0>        -0.1214
     26 C18        -0.9562  -11.5860    0.7430 C.ar      1 <0>        -0.0440
     27 C19        -0.6592  -11.3585   -0.5885 C.ar      1 <0>        -0.1873
     28 C20        -0.7565  -10.0849   -1.1120 C.ar      1 <0>        -0.0269
     29 C21        -0.2343  -12.5039   -1.4707 C.3       1 <0>         0.5113
     30 F1         -0.2154  -13.6863   -0.7231 F         1 <0>        -0.1734
     31 F2         -1.1381  -12.6366   -2.5303 F         1 <0>        -0.1731
     32 F3          1.0450  -12.2523   -1.9778 F         1 <0>        -0.1734
     33 H1         -0.9592    1.9039    0.0259 H         1 <0>         0.1317
     34 H2          1.1570    3.1645    0.0109 H         1 <0>         0.1367
     35 H3          3.3020    1.9640   -0.0250 H         1 <0>         0.1387
     36 H4         -0.9274   -0.5541    0.0085 H         1 <0>         0.1180
     37 H5          2.6053   -3.8045   -0.2188 H         1 <0>         0.1002
     38 H6          2.6796   -2.5860   -1.5181 H         1 <0>         0.1079
     39 H7          3.4739   -2.0828    1.3924 H         1 <0>         0.0699
     40 H8          4.6219   -2.4049    0.0661 H         1 <0>         0.1238
     41 H9          1.3325   -2.5526    2.1488 H         1 <0>         0.4431
     42 H10        -2.6648   -4.1235    0.2614 H         1 <0>         0.1529
     43 H11        -2.3547   -3.5745   -1.4031 H         1 <0>         0.1410
     44 H12        -1.7458   -8.4441    1.6847 H         1 <0>         0.1516
     45 H13        -1.5768  -10.7222    2.5978 H         1 <0>         0.1492
     46 H14        -0.8828  -12.5847    1.1475 H         1 <0>         0.1485
     47 H15        -0.5290   -9.9090   -2.1530 H         1 <0>         0.1439
@<TRIPOS>BOND
     1    1    6 ar
     2    1    2 ar
     3    1   33 1
     4    2    3 ar
     5    2   34 1
     6    3    4 ar
     7    3   35 1
     8    4   10 1
     9    4    5 ar
    10    5    6 ar
    11    5    7 1
    12    6   36 1
    13    7   16 1
    14    7    8 1
    15    7   11 1
    16    8    9 1
    17    8   37 1
    18    8   38 1
    19    9   10 1
    20    9   39 1
    21    9   40 1
    22   11   12 2
    23   11   13 am
    24   13   14 am
    25   13   17 1
    26   14   15 2
    27   14   16 am
    28   16   41 1
    29   17   18 1
    30   17   42 1
    31   17   43 1
    32   18   22 1
    33   18   19 2
    34   19   20 1
    35   20   21 2
    36   20   23 1
    37   21   22 1
    38   23   28 ar
    39   23   24 ar
    40   24   25 ar
    41   24   44 1
    42   25   26 ar
    43   25   45 1
    44   26   27 ar
    45   26   46 1
    46   27   28 ar
    47   27   29 1
    48   28   47 1
    49   29   30 1
    50   29   31 1
    51   29   32 1
@<TRIPOS>MOLECULE
ZINC00656505
   41    43     0     0     0
SMALL
USER_CHARGES
3-benzo[1,3]dioxol-5-yl-N-[(4-sulfamoylphenyl)methyl]prop-2-enamide
@<TRIPOS>ATOM
      1 C1         -4.1373    2.5160    1.2325 C.ar      1 <0>        -0.1213
      2 C2         -5.1972    3.4033    1.2424 C.ar      1 <0>        -0.0184
      3 C3         -5.7337    3.8525    0.0502 C.ar      1 <0>        -0.6691
      4 C4         -5.2077    3.4173   -1.1519 C.ar      1 <0>        -0.0184
      5 C5         -4.1450    2.5334   -1.1617 C.ar      1 <0>        -0.1213
      6 C6         -3.6079    2.0849    0.0305 C.ar      1 <0>        -0.0504
      7 C7         -2.4493    1.1213    0.0198 C.3       1 <0>         0.1532
      8 N1         -1.1906    1.8710    0.0179 N.am      1 <0>        -0.7243
      9 C8         -0.0144    1.2130    0.0087 C.2       1 <0>         0.5504
     10 O1          0.0021   -0.0041    0.0020 O.2       1 <0>        -0.5402
     11 C9          1.2421    1.9614    0.0007 C.2       1 <0>        -0.2154
     12 C10         2.4201    1.3025   -0.0141 C.2       1 <0>        -0.0057
     13 C11         3.6830    2.0548   -0.0221 C.ar      1 <0>        -0.0707
     14 C12         3.6667    3.4542   -0.0144 C.ar      1 <0>        -0.0869
     15 C13         4.8515    4.1563   -0.0214 C.ar      1 <0>        -0.1027
     16 C14         6.0650    3.4808   -0.0366 C.ar      1 <0>         0.0474
     17 C15         6.0891    2.0851   -0.0444 C.ar      1 <0>         0.0297
     18 C16         4.9056    1.3739   -0.0315 C.ar      1 <0>        -0.0748
     19 O2          7.3905    1.6724   -0.0588 O.3       1 <0>        -0.3063
     20 C17         8.1606    2.8169    0.3533 C.3       1 <0>         0.2124
     21 O3          7.3501    3.9376   -0.0464 O.3       1 <0>        -0.3057
     22 S1         -7.0876    4.9801    0.0627 S.o2      1 <0>         2.7012
     23 O4         -7.0418    5.6557    1.3120 O.2       1 <0>        -0.9611
     24 O5         -7.0524    5.6707   -1.1786 O.2       1 <0>        -0.9610
     25 N2         -8.4762    4.0779    0.0632 N.pl3     1 <0>        -1.2494
     26 H1         -3.7205    2.1622    2.1639 H         1 <0>         0.1382
     27 H2         -5.6079    3.7435    2.1815 H         1 <0>         0.1469
     28 H3         -5.6269    3.7682   -2.0833 H         1 <0>         0.1469
     29 H4         -3.7340    2.1934   -2.1008 H         1 <0>         0.1383
     30 H5         -2.5028    0.4987   -0.8734 H         1 <0>         0.0847
     31 H6         -2.4943    0.4891    0.9065 H         1 <0>         0.0846
     32 H7         -1.2038    2.8408    0.0232 H         1 <0>         0.4046
     33 H8          1.2274    3.0413    0.0067 H         1 <0>         0.1323
     34 H9          2.4347    0.2226   -0.0200 H         1 <0>         0.1406
     35 H10         2.7252    3.9833   -0.0034 H         1 <0>         0.1442
     36 H11         4.8369    5.2361   -0.0154 H         1 <0>         0.1414
     37 H12         4.9234    0.2941   -0.0334 H         1 <0>         0.1430
     38 H13         8.3031    2.8136    1.4339 H         1 <0>         0.0881
     39 H14         9.1217    2.8369   -0.1605 H         1 <0>         0.1356
     40 H15        -8.4253    3.1092    0.0572 H         1 <0>         0.4172
     41 H16        -9.3406    4.5180    0.0696 H         1 <0>         0.4224
@<TRIPOS>BOND
     1    1    6 ar
     2    1    2 ar
     3    1   26 1
     4    2    3 ar
     5    2   27 1
     6    3    4 ar
     7    3   22 1
     8    4    5 ar
     9    4   28 1
    10    5    6 ar
    11    5   29 1
    12    6    7 1
    13    7    8 1
    14    7   30 1
    15    7   31 1
    16    8    9 am
    17    8   32 1
    18    9   10 2
    19    9   11 1
    20   11   12 2
    21   11   33 1
    22   12   13 1
    23   12   34 1
    24   13   18 ar
    25   13   14 ar
    26   14   15 ar
    27   14   35 1
    28   15   16 ar
    29   15   36 1
    30   16   21 1
    31   16   17 ar
    32   17   18 ar
    33   17   19 1
    34   18   37 1
    35   19   20 1
    36   20   21 1
    37   20   38 1
    38   20   39 1
    39   22   23 2
    40   22   24 2
    41   22   25 1
    42   25   40 1
    43   25   41 1
@<TRIPOS>MOLECULE
ZINC00178860
   44    46     0     0     0
SMALL
USER_CHARGES

@<TRIPOS>ATOM
      1 C1         -0.0184    1.5028    0.0103 C.3       1 <0>        -0.1231
      2 C2          0.0021   -0.0041    0.0020 C.2       1 <0>         0.2569
      3 C3         -1.1646   -0.6842    0.0040 C.2       1 <0>        -0.2811
      4 C4         -1.0984   -2.1980   -0.0046 C.3       1 <0>         0.2379
      5 H1         -1.6352   -2.5529   -0.8844 H         1 <0>         0.0919
      6 N1          0.2423   -2.8072   -0.0144 N.am      1 <0>        -0.7090
      7 C5          1.3166   -1.9934   -0.0151 C.2       1 <0>         0.7048
      8 O1          2.4276   -2.4865   -0.0232 O.2       1 <0>        -0.5604
      9 N2          1.2000   -0.6595   -0.0129 N.am      1 <0>        -0.6461
     10 C6         -1.8279   -2.7018    1.2141 C.ar      1 <0>        -0.0966
     11 C7         -1.2023   -2.6912    2.4473 C.ar      1 <0>        -0.1118
     12 C8         -1.8688   -3.1526    3.5671 C.ar      1 <0>        -0.1079
     13 C9         -3.1620   -3.6262    3.4565 C.ar      1 <0>        -0.1442
     14 C10        -3.7918   -3.6379    2.2207 C.ar      1 <0>         0.1215
     15 C11        -3.1228   -3.1686    1.0993 C.ar      1 <0>        -0.0944
     16 O2         -5.0638   -4.1032    2.1093 O.3       1 <0>        -0.4998
     17 C12        -2.4062   -0.0065    0.0141 C.2       1 <0>         0.5365
     18 O3         -2.4353    1.2099    0.0213 O.2       1 <0>        -0.5196
     19 O4         -3.5583   -0.7091    0.0158 O.3       1 <0>        -0.3338
     20 C13        -4.7751    0.0403    0.0263 C.3       1 <0>         0.0580
     21 C14        -5.9658   -0.9206    0.0267 C.3       1 <0>         0.0887
     22 H2         -5.8818   -1.6136   -0.8104 H         1 <0>         0.0937
     23 C15        -7.2827   -0.1226   -0.0840 C.3       1 <0>        -0.1484
     24 C16        -8.2213   -0.9005    0.8782 C.3       1 <0>        -0.1541
     25 C17        -7.2168   -1.3514    1.9683 C.3       1 <0>         0.0402
     26 O5         -6.0015   -1.6495    1.2592 O.3       1 <0>        -0.3735
     27 H3          1.0042    1.8801    0.0026 H         1 <0>         0.0706
     28 H4         -0.5455    1.8639   -0.8728 H         1 <0>         0.1070
     29 H5         -0.5286    1.8543    0.9071 H         1 <0>         0.1062
     30 H6          0.3496   -3.7712   -0.0198 H         1 <0>         0.4344
     31 H7          2.0121   -0.1290   -0.0178 H         1 <0>         0.4305
     32 H8         -0.1912   -2.3221    2.5357 H         1 <0>         0.1126
     33 H9         -1.3780   -3.1433    4.5291 H         1 <0>         0.1234
     34 H10        -3.6820   -3.9873    4.3315 H         1 <0>         0.1246
     35 H11        -3.6126   -3.1722    0.1368 H         1 <0>         0.1302
     36 H12        -5.7425   -3.4247    2.2276 H         1 <0>         0.3900
     37 H13        -4.8105    0.6632    0.9200 H         1 <0>         0.0714
     38 H14        -4.8195    0.6734   -0.8599 H         1 <0>         0.0779
     39 H15        -7.1439    0.9040    0.2553 H         1 <0>         0.0818
     40 H16        -7.6664   -0.1467   -1.1039 H         1 <0>         0.0897
     41 H17        -8.9863   -0.2457    1.2955 H         1 <0>         0.0866
     42 H18        -8.6712   -1.7590    0.3793 H         1 <0>         0.0829
     43 H19        -7.0500   -0.5472    2.6850 H         1 <0>         0.0638
     44 H20        -7.5852   -2.2422    2.4771 H         1 <0>         0.0901
@<TRIPOS>BOND
     1    1    2 1
     2    1   27 1
     3    1   28 1
     4    1   29 1
     5    2    9 1
     6    2    3 2
     7    3    4 1
     8    3   17 1
     9    4    5 1
    10    4    6 1
    11    4   10 1
    12    6    7 am
    13    6   30 1
    14    7    8 2
    15    7    9 am
    16    9   31 1
    17   10   15 ar
    18   10   11 ar
    19   11   12 ar
    20   11   32 1
    21   12   13 ar
    22   12   33 1
    23   13   14 ar
    24   13   34 1
    25   14   15 ar
    26   14   16 1
    27   15   35 1
    28   16   36 1
    29   17   18 2
    30   17   19 1
    31   19   20 1
    32   20   21 1
    33   20   37 1
    34   20   38 1
    35   21   22 1
    36   21   26 1
    37   21   23 1
    38   23   24 1
    39   23   39 1
    40   23   40 1
    41   24   25 1
    42   24   41 1
    43   24   42 1
    44   25   26 1
    45   25   43 1
    46   25   44 1
@<TRIPOS>MOLECULE
ZINC48700874
   45    47     0     0     0
SMALL
USER_CHARGES

@<TRIPOS>ATOM
      1 C1         -0.0114    1.5471    0.0288 C.3       1 <0>        -0.1497
      2 C2          0.0182    0.0174    0.0177 C.3       1 <0>        -0.0935
      3 C3         -1.4142   -0.5204    0.0196 C.3       1 <0>        -0.1189
      4 C4         -1.3847   -2.0500    0.0085 C.3       1 <0>        -0.1288
      5 C5         -0.6486   -2.5550    1.2511 C.3       1 <0>         0.1436
      6 C6          0.7837   -2.0172    1.2492 C.3       1 <0>        -0.1324
      7 C7          0.7542   -0.4875    1.2603 C.3       1 <0>        -0.1158
      8 N1         -1.3437   -2.0887    2.4535 N.am      1 <0>        -0.6874
      9 C8         -1.2232   -2.7717    3.6091 C.2       1 <0>         0.5113
     10 O1         -0.5389   -3.7730    3.6537 O.2       1 <0>        -0.5107
     11 C9         -1.9317   -2.2964    4.8347 C.2       1 <0>         0.5101
     12 O2         -2.6162   -1.2949    4.7901 O.2       1 <0>        -0.4903
     13 N2         -1.8112   -2.9794    5.9903 N.am      1 <0>        -0.6371
     14 C10        -2.3786   -2.4734    7.1641 C.ar      1 <0>         0.1683
     15 C11        -2.5991   -1.1074    7.2955 C.ar      1 <0>        -0.1089
     16 C12        -3.1600   -0.6098    8.4570 C.ar      1 <0>         0.1090
     17 C13        -3.5025   -1.4787    9.4930 C.ar      1 <0>         0.0928
     18 C14        -3.2822   -2.8398    9.3600 C.ar      1 <0>        -0.0902
     19 C15        -2.7267   -3.3378    8.1955 C.ar      1 <0>        -0.0569
     20 Cl1        -2.4567   -5.0442    8.0247 Cl        1 <0>        -0.0436
     21 N3         -4.0695   -0.9570   10.6659 N.am      1 <0>        -0.6575
     22 C16        -4.5595    0.3017   10.6523 C.2       1 <0>         0.4918
     23 O3         -5.0264    0.7843   11.6625 O.2       1 <0>        -0.5024
     24 C17        -4.5235    1.1045    9.3768 C.3       1 <0>         0.0494
     25 O4         -3.3838    0.7241    8.6016 O.3       1 <0>        -0.2933
     26 H1          1.0091    1.9302    0.0274 H         1 <0>         0.0552
     27 H2         -0.5357    1.9068   -0.8565 H         1 <0>         0.0554
     28 H3         -0.5285    1.8940    0.9234 H         1 <0>         0.0548
     29 H4          0.5353   -0.3295   -0.8769 H         1 <0>         0.0726
     30 H5         -1.9314   -0.1734    0.9142 H         1 <0>         0.0614
     31 H6         -1.9385   -0.1607   -0.8657 H         1 <0>         0.0701
     32 H7         -2.4051   -2.4332    0.0098 H         1 <0>         0.0727
     33 H8         -0.8675   -2.3970   -0.8861 H         1 <0>         0.0846
     34 H9         -0.6276   -3.6447    1.2432 H         1 <0>         0.0953
     35 H10         1.3081   -2.3769    2.1345 H         1 <0>         0.0699
     36 H11         1.3009   -2.3641    0.3546 H         1 <0>         0.0778
     37 H12         1.7746   -0.1043    1.2590 H         1 <0>         0.0652
     38 H13         0.2370   -0.1406    2.1549 H         1 <0>         0.0618
     39 H14        -1.8907   -1.2884    2.4179 H         1 <0>         0.4129
     40 H15        -1.3309   -3.8220    6.0079 H         1 <0>         0.4290
     41 H16        -2.3325   -0.4364    6.4924 H         1 <0>         0.1724
     42 H17        -3.5483   -3.5117   10.1627 H         1 <0>         0.1529
     43 H18        -4.1092   -1.4921   11.4740 H         1 <0>         0.4195
     44 H19        -5.4314    0.9161    8.8038 H         1 <0>         0.1058
     45 H20        -4.4607    2.1657    9.6177 H         1 <0>         0.1519
@<TRIPOS>BOND
     1    1    2 1
     2    1   26 1
     3    1   27 1
     4    1   28 1
     5    2    7 1
     6    2    3 1
     7    2   29 1
     8    3    4 1
     9    3   30 1
    10    3   31 1
    11    4    5 1
    12    4   32 1
    13    4   33 1
    14    5    6 1
    15    5    8 1
    16    5   34 1
    17    6    7 1
    18    6   35 1
    19    6   36 1
    20    7   37 1
    21    7   38 1
    22    8    9 am
    23    8   39 1
    24    9   10 2
    25    9   11 1
    26   11   12 2
    27   11   13 am
    28   13   14 1
    29   13   40 1
    30   14   19 ar
    31   14   15 ar
    32   15   16 ar
    33   15   41 1
    34   16   25 1
    35   16   17 ar
    36   17   18 ar
    37   17   21 1
    38   18   19 ar
    39   18   42 1
    40   19   20 1
    41   21   22 am
    42   21   43 1
    43   22   23 2
    44   22   24 1
    45   24   25 1
    46   24   44 1
    47   24   45 1
@<TRIPOS>MOLECULE
ZINC57961884
   34    36     0     0     0
SMALL
USER_CHARGES

@<TRIPOS>ATOM
      1 C1         -0.0167    1.3777    0.0096 C.ar      1 <0>        -0.1117
      2 C2          1.1697    2.0876    0.0021 C.ar      1 <0>        -0.1115
      3 C3          2.3783    1.4178   -0.0143 C.ar      1 <0>        -0.1074
      4 C4          2.4042    0.0310   -0.0230 C.ar      1 <0>         0.0491
      5 C5          1.2117   -0.6826   -0.0129 C.ar      1 <0>         0.0446
      6 C6          0.0021   -0.0041    0.0020 C.ar      1 <0>        -0.1095
      7 O1          1.2145   -2.0436   -0.0133 O.3       1 <0>        -0.2957
      8 C7          2.4336   -2.6847   -0.4041 C.3       1 <0>         0.0325
      9 C8          3.5941   -1.9974    0.3280 C.3       1 <0>         0.0479
     10 H1          3.4543   -2.0880    1.4052 H         1 <0>         0.1213
     11 O2          3.6022   -0.6147   -0.0433 O.3       1 <0>        -0.2782
     12 C9          4.8979   -2.6393   -0.0710 C.2       1 <0>         0.5275
     13 O3          5.7272   -1.9990   -0.6819 O.2       1 <0>        -0.5036
     14 N1          5.1425   -3.9250    0.2512 N.am      1 <0>        -0.5134
     15 N2          6.3546   -4.5217   -0.1197 N.am      1 <0>        -0.5220
     16 C10         6.5991   -5.8073    0.2025 C.2       1 <0>         0.5981
     17 O4          5.7670   -6.4499    0.8155 O.2       1 <0>        -0.5162
     18 C11         7.8681   -6.4321   -0.1858 C.2       1 <0>        -0.0484
     19 C12         8.2480   -7.7326    0.0703 C.2       1 <0>        -0.0585
     20 C13         9.5251   -7.9026   -0.4744 C.2       1 <0>        -0.1848
     21 C14         9.8947   -6.7286   -1.0413 C.2       1 <0>         0.0800
     22 N3          8.8938   -5.8285   -0.8773 N.pl3     1 <0>        -0.5324
     23 H2          8.9004   -4.9114   -1.1931 H         1 <0>         0.4249
     24 Br1        10.5534   -9.4889   -0.4276 Br        1 <0>        -0.0152
     25 H3         -0.9596    1.9040    0.0259 H         1 <0>         0.1358
     26 H4          1.1518    3.1674    0.0087 H         1 <0>         0.1360
     27 H5          3.3037    1.9746   -0.0208 H         1 <0>         0.1379
     28 H6         -0.9261   -0.5562    0.0079 H         1 <0>         0.1380
     29 H7          2.3988   -3.7390   -0.1298 H         1 <0>         0.1303
     30 H8          2.5703   -2.5889   -1.4813 H         1 <0>         0.0887
     31 H9          4.4793   -4.4371    0.7398 H         1 <0>         0.4373
     32 H10         7.0178   -4.0096   -0.6083 H         1 <0>         0.4285
     33 H11         7.6688   -8.4792    0.5933 H         1 <0>         0.1627
     34 H12        10.8314   -6.5417   -1.5451 H         1 <0>         0.1874
@<TRIPOS>BOND
     1    1    6 ar
     2    1    2 ar
     3    1   25 1
     4    2    3 ar
     5    2   26 1
     6    3    4 ar
     7    3   27 1
     8    4   11 1
     9    4    5 ar
    10    5    6 ar
    11    5    7 1
    12    6   28 1
    13    7    8 1
    14    8    9 1
    15    8   29 1
    16    8   30 1
    17    9   10 1
    18    9   11 1
    19    9   12 1
    20   12   13 2
    21   12   14 am
    22   14   15 1
    23   14   31 1
    24   15   16 am
    25   15   32 1
    26   16   17 2
    27   16   18 1
    28   18   22 1
    29   18   19 2
    30   19   20 1
    31   19   33 1
    32   20   21 2
    33   20   24 1
    34   21   22 1
    35   21   34 1
    36   22   23 1
@<TRIPOS>MOLECULE
ZINC64428134
   50    52     0     0     0
SMALL
USER_CHARGES

@<TRIPOS>ATOM
      1 C1         -0.0159    1.3805    0.0230 C.ar      1 <0>        -0.1061
      2 C2          1.1690    2.0957    0.0162 C.ar      1 <0>        -0.1223
      3 C3          2.3782    1.4333   -0.0018 C.ar      1 <0>        -0.0930
      4 C4          2.4053    0.0352   -0.0127 C.ar      1 <0>        -0.0815
      5 C5          1.2038   -0.6802   -0.0053 C.ar      1 <0>        -0.1001
      6 C6          0.0026   -0.0033    0.0122 C.ar      1 <0>        -0.1223
      7 C7          3.6919   -0.6797   -0.0324 C.2       1 <0>        -0.0094
      8 C8          3.7140   -2.0275   -0.0429 C.2       1 <0>        -0.2235
      9 C9          4.9939   -2.7387   -0.0625 C.2       1 <0>         0.5534
     10 O1          6.0345   -2.1159   -0.1639 O.2       1 <0>        -0.5423
     11 N1          5.0194   -4.0829    0.0318 N.am      1 <0>        -0.6124
     12 C10         3.7706   -4.8569    0.0360 C.3       1 <0>         0.1049
     13 C11         3.7576   -5.7653    1.2695 C.3       1 <0>        -0.1170
     14 C12         5.0269   -6.6201    1.2819 C.3       1 <0>        -0.0959
     15 C13         6.2554   -5.7112    1.3643 C.3       1 <0>        -0.1293
     16 C14         6.2969   -4.8026    0.1262 C.3       1 <0>         0.1139
     17 C15         5.0015   -7.5394    2.4758 C.2       1 <0>         0.5208
     18 O2          4.0611   -7.5134    3.2412 O.2       1 <0>        -0.5233
     19 N2          6.0239   -8.3904    2.6929 N.am      1 <0>        -0.5315
     20 N3          6.0002   -9.2449    3.8028 N.am      1 <0>        -0.5318
     21 C16         7.0226  -10.0959    4.0200 C.2       1 <0>         0.7173
     22 O3          7.0021  -10.8376    4.9833 O.2       1 <0>        -0.5648
     23 N4          8.0676  -10.1248    3.1694 N.am      1 <0>        -0.7146
     24 C17         9.1789  -11.0498    3.4054 C.3       1 <0>         0.0942
     25 C18        10.5986  -10.5094    3.2236 C.3       1 <0>        -0.1923
     26 C19        10.0111  -11.4777    2.1950 C.3       1 <0>        -0.1878
     27 H1         -0.9598    1.9050    0.0413 H         1 <0>         0.1255
     28 H2          1.1464    3.1755    0.0247 H         1 <0>         0.1274
     29 H3          3.3020    1.9928   -0.0077 H         1 <0>         0.1288
     30 H4          1.2167   -1.7601   -0.0140 H         1 <0>         0.1262
     31 H5         -0.9262   -0.5545    0.0179 H         1 <0>         0.1269
     32 H6          4.6182   -0.1244   -0.0384 H         1 <0>         0.1365
     33 H7          2.7878   -2.5829   -0.0369 H         1 <0>         0.1332
     34 H8          2.9194   -4.1770    0.0740 H         1 <0>         0.0953
     35 H9          3.7148   -5.4654   -0.8665 H         1 <0>         0.0762
     36 H10         3.7219   -5.1539    2.1712 H         1 <0>         0.0806
     37 H11         2.8824   -6.4140    1.2344 H         1 <0>         0.0898
     38 H12         5.0744   -7.2129    0.3684 H         1 <0>         0.1091
     39 H13         6.1962   -5.1003    2.2651 H         1 <0>         0.0796
     40 H14         7.1580   -6.3214    1.3966 H         1 <0>         0.0801
     41 H15         6.4429   -5.4068   -0.7691 H         1 <0>         0.0741
     42 H16         7.1131   -4.0868    0.2237 H         1 <0>         0.1004
     43 H17         6.7760   -8.4111    2.0807 H         1 <0>         0.4183
     44 H18         5.2481   -9.2242    4.4150 H         1 <0>         0.4453
     45 H19         8.0840   -9.5331    2.4009 H         1 <0>         0.3917
     46 H20         9.0176  -11.7875    4.1915 H         1 <0>         0.1431
     47 H21        10.7059   -9.4656    2.9284 H         1 <0>         0.0976
     48 H22        11.3718  -10.8914    3.8903 H         1 <0>         0.1060
     49 H23        10.3977  -12.4968    2.1849 H         1 <0>         0.1074
     50 H24         9.7318  -11.0710    1.2230 H         1 <0>         0.0977
@<TRIPOS>BOND
     1    1    6 ar
     2    1    2 ar
     3    1   27 1
     4    2    3 ar
     5    2   28 1
     6    3    4 ar
     7    3   29 1
     8    4    5 ar
     9    4    7 1
    10    5    6 ar
    11    5   30 1
    12    6   31 1
    13    7    8 2
    14    7   32 1
    15    8    9 1
    16    8   33 1
    17    9   10 2
    18    9   11 am
    19   11   16 1
    20   11   12 1
    21   12   13 1
    22   12   34 1
    23   12   35 1
    24   13   14 1
    25   13   36 1
    26   13   37 1
    27   14   15 1
    28   14   17 1
    29   14   38 1
    30   15   16 1
    31   15   39 1
    32   15   40 1
    33   16   41 1
    34   16   42 1
    35   17   18 2
    36   17   19 am
    37   19   20 1
    38   19   43 1
    39   20   21 am
    40   20   44 1
    41   21   22 2
    42   21   23 am
    43   23   24 1
    44   23   45 1
    45   24   26 1
    46   24   25 1
    47   24   46 1
    48   25   26 1
    49   25   47 1
    50   25   48 1
    51   26   49 1
    52   26   50 1
@<TRIPOS>MOLECULE
ZINC67608182
   31    32     0     0     0
SMALL
USER_CHARGES

@<TRIPOS>ATOM
      1 C1         -0.0184    1.5028    0.0103 C.3       1 <0>        -0.0924
      2 C2          0.0021   -0.0041    0.0020 C.2       1 <0>         0.0809
      3 C3         -1.0767   -0.8104    0.0026 C.2       1 <0>        -0.2826
      4 C4         -0.6269   -2.1430   -0.0073 C.2       1 <0>         0.0840
      5 N1          0.6760   -2.1297   -0.0134 N.2       1 <0>        -0.2991
      6 O1          1.0981   -0.7779   -0.0131 O.3       1 <0>        -0.0703
      7 C5         -1.4995   -3.3716   -0.0097 C.3       1 <0>         0.2110
      8 N2         -1.6912   -3.8317   -1.3873 N.am      1 <0>        -0.7402
      9 C6         -2.4422   -4.9231   -1.6349 C.2       1 <0>         0.7205
     10 O2         -2.9606   -5.5258   -0.7150 O.2       1 <0>        -0.5574
     11 N3         -2.6186   -5.3464   -2.9023 N.am      1 <0>        -0.5227
     12 N4         -2.0212   -4.6519   -3.9623 N.am      1 <0>        -0.5263
     13 C7         -2.1975   -5.0752   -5.2296 C.2       1 <0>         0.6126
     14 O3         -2.8758   -6.0608   -5.4533 O.2       1 <0>        -0.5068
     15 C8         -1.5729   -4.3490   -6.3381 C.2       1 <0>        -0.2456
     16 C9         -1.6326   -4.6111   -7.6987 C.2       1 <0>        -0.0516
     17 C10        -0.9356   -3.7442   -8.5048 C.2       1 <0>        -0.1408
     18 C11        -0.2539   -2.7178   -7.9352 C.2       1 <0>        -0.2163
     19 S1         -0.5445   -2.8936   -6.2899 S.3       1 <0>         0.2605
     20 Br1         0.7797   -1.3894   -8.7970 Br        1 <0>         0.0554
     21 H1          1.0042    1.8801    0.0026 H         1 <0>         0.0871
     22 H2         -0.5455    1.8639   -0.8728 H         1 <0>         0.0988
     23 H3         -0.5286    1.8543    0.9071 H         1 <0>         0.0992
     24 H4         -2.1079   -0.4896    0.0097 H         1 <0>         0.1638
     25 H5         -1.0205   -4.1586    0.5729 H         1 <0>         0.0975
     26 H6         -2.4670   -3.1310    0.4310 H         1 <0>         0.1044
     27 H7         -1.2776   -3.3509   -2.1212 H         1 <0>         0.3940
     28 H8         -3.1591   -6.1318   -3.0805 H         1 <0>         0.4490
     29 H9         -1.4807   -3.8664   -3.7841 H         1 <0>         0.4178
     30 H10        -2.1913   -5.4441   -8.0990 H         1 <0>         0.1630
     31 H11        -0.9298   -3.8776   -9.5765 H         1 <0>         0.1528
@<TRIPOS>BOND
     1    1    2 1
     2    1   21 1
     3    1   22 1
     4    1   23 1
     5    2    6 1
     6    2    3 2
     7    3    4 1
     8    3   24 1
     9    4    5 2
    10    4    7 1
    11    5    6 1
    12    7    8 1
    13    7   25 1
    14    7   26 1
    15    8    9 am
    16    8   27 1
    17    9   10 2
    18    9   11 am
    19   11   12 1
    20   11   28 1
    21   12   13 am
    22   12   29 1
    23   13   14 2
    24   13   15 1
    25   15   19 1
    26   15   16 2
    27   16   17 1
    28   16   30 1
    29   17   18 2
    30   17   31 1
    31   18   19 1
    32   18   20 1
@<TRIPOS>MOLECULE
ZINC04967774
   59    63     0     0     0
SMALL
USER_CHARGES
N-(1-adamantyl)-1-(4,6-dimethylpyrimidin-2-yl)-piperidine-3-carboxamide
@<TRIPOS>ATOM
      1 C1          2.6411    8.1701   -2.7056 C.3       1 <0>        -0.1076
      2 C2          2.6583    6.6962   -3.0194 C.ar      1 <0>         0.1872
      3 C3          2.7064    6.2595   -4.3340 C.ar      1 <0>        -0.2351
      4 C4          2.7213    4.8953   -4.5789 C.ar      1 <0>         0.1894
      5 N1          2.6893    4.0559   -3.5571 N.ar      1 <0>        -0.5476
      6 C5          2.6436    4.5062   -2.3119 C.ar      1 <0>         0.4934
      7 N2          2.6228    5.8036   -2.0439 N.ar      1 <0>        -0.4985
      8 N3          2.6111    3.5998   -1.2664 N.pl3     1 <0>        -0.4706
      9 C6          3.7555    2.6818   -1.3302 C.3       1 <0>         0.0642
     10 C7          3.7674    1.7922   -0.0850 C.3       1 <0>        -0.1163
     11 C8          2.4580    1.0014   -0.0160 C.3       1 <0>        -0.1008
     12 C9          1.2803    1.9798    0.0005 C.3       1 <0>        -0.1042
     13 H1          1.3380    2.6037    0.8924 H         1 <0>         0.1088
     14 C10         1.3405    2.8640   -1.2472 C.3       1 <0>         0.0813
     15 C11        -0.0144    1.2086    0.0087 C.2       1 <0>         0.5239
     16 O1          0.0021   -0.0041    0.0020 O.2       1 <0>        -0.5266
     17 N4         -1.1906    1.8666    0.0178 N.am      1 <0>        -0.7261
     18 C12        -2.4492    1.1169    0.0197 C.3       1 <0>         0.1839
     19 C13        -2.5124    0.2295    1.2645 C.3       1 <0>        -0.1215
     20 C14        -3.8269   -0.5535    1.2665 C.3       1 <0>        -0.0826
     21 C15        -5.0032    0.4249    1.2774 C.3       1 <0>        -0.1112
     22 C16        -4.9400    1.3123    0.0326 C.3       1 <0>        -0.0804
     23 C17        -3.6255    2.0952    0.0306 C.3       1 <0>        -0.1152
     24 C18        -5.0151    0.4385   -1.2211 C.3       1 <0>        -0.1112
     25 C19        -3.8388   -0.5399   -1.2320 C.3       1 <0>        -0.0825
     26 C20        -3.9020   -1.4273    0.0128 C.3       1 <0>        -0.1091
     27 C21        -2.5243    0.2431   -1.2339 C.3       1 <0>        -0.1210
     28 C22         2.7737    4.3747   -5.9922 C.3       1 <0>        -0.1090
     29 H2          1.6099    8.5211   -2.6661 H         1 <0>         0.0873
     30 H3          3.1206    8.3420   -1.7420 H         1 <0>         0.0852
     31 H4          3.1802    8.7131   -3.4818 H         1 <0>         0.0828
     32 H5          2.7321    6.9668   -5.1498 H         1 <0>         0.1491
     33 H6          4.6804    3.2568   -1.3746 H         1 <0>         0.0758
     34 H7          3.6722    2.0588   -2.2208 H         1 <0>         0.0558
     35 H8          3.8646    2.4135    0.8053 H         1 <0>         0.0760
     36 H9          4.6079    1.1003   -0.1401 H         1 <0>         0.0793
     37 H10         2.4438    0.3989    0.8922 H         1 <0>         0.0767
     38 H11         2.3784    0.3502   -0.8865 H         1 <0>         0.0715
     39 H12         1.2685    2.2402   -2.1382 H         1 <0>         0.0562
     40 H13         0.5113    3.5713   -1.2313 H         1 <0>         0.0762
     41 H14        -1.2037    2.8365    0.0232 H         1 <0>         0.3984
     42 H15        -1.6744   -0.4675    1.2567 H         1 <0>         0.0856
     43 H16        -2.4590    0.8520    2.1576 H         1 <0>         0.0594
     44 H17        -3.8719   -1.1857    2.1532 H         1 <0>         0.0722
     45 H18        -4.9498    1.0474    2.1705 H         1 <0>         0.0624
     46 H19        -5.9397   -0.1329    1.2788 H         1 <0>         0.0648
     47 H20        -5.7781    2.0093    0.0404 H         1 <0>         0.0746
     48 H21        -3.5721    2.7178    0.9238 H         1 <0>         0.0685
     49 H22        -3.5805    2.7274   -0.8561 H         1 <0>         0.0669
     50 H23        -5.9516   -0.1193   -1.2196 H         1 <0>         0.0649
     51 H24        -4.9701    1.0707   -2.1078 H         1 <0>         0.0615
     52 H25        -3.8922   -1.1624   -2.1251 H         1 <0>         0.0717
     53 H26        -3.0640   -2.1243    0.0050 H         1 <0>         0.0648
     54 H27        -4.8384   -1.9851    0.0142 H         1 <0>         0.0626
     55 H28        -2.4793    0.8753   -2.1207 H         1 <0>         0.0575
     56 H29        -1.6863   -0.4539   -1.2417 H         1 <0>         0.0852
     57 H30         1.7593    4.2442   -6.3691 H         1 <0>         0.0863
     58 H31         3.3066    5.0869   -6.6222 H         1 <0>         0.0828
     59 H32         3.2931    3.4166   -6.0074 H         1 <0>         0.0827
@<TRIPOS>BOND
     1    1    2 1
     2    1   29 1
     3    1   30 1
     4    1   31 1
     5    2    7 ar
     6    2    3 ar
     7    3    4 ar
     8    3   32 1
     9    4    5 ar
    10    4   28 1
    11    5    6 ar
    12    6    7 ar
    13    6    8 1
    14    8   14 1
    15    8    9 1
    16    9   10 1
    17    9   33 1
    18    9   34 1
    19   10   11 1
    20   10   35 1
    21   10   36 1
    22   11   12 1
    23   11   37 1
    24   11   38 1
    25   12   13 1
    26   12   14 1
    27   12   15 1
    28   14   39 1
    29   14   40 1
    30   15   16 2
    31   15   17 am
    32   17   18 1
    33   17   41 1
    34   18   23 1
    35   18   27 1
    36   18   19 1
    37   19   20 1
    38   19   42 1
    39   19   43 1
    40   20   26 1
    41   20   21 1
    42   20   44 1
    43   21   22 1
    44   21   45 1
    45   21   46 1
    46   22   23 1
    47   22   24 1
    48   22   47 1
    49   23   48 1
    50   23   49 1
    51   24   25 1
    52   24   50 1
    53   24   51 1
    54   25   26 1
    55   25   27 1
    56   25   52 1
    57   26   53 1
    58   26   54 1
    59   27   55 1
    60   27   56 1
    61   28   57 1
    62   28   58 1
    63   28   59 1
@<TRIPOS>MOLECULE
ZINC08323491
   38    39     0     0     0
SMALL
USER_CHARGES
ethyl 4-(2,6-dichlorophenyl)-1,6-dimethyl-2-oxo-3,4-dihydropyrimidine-5-carboxylate
@<TRIPOS>ATOM
      1 C1          5.3757    1.8442   -2.5013 C.3       1 <0>        -0.1523
      2 C2          4.3556    2.8274   -3.0790 C.3       1 <0>         0.0643
      3 O1          3.3158    3.0506   -2.1246 O.3       1 <0>        -0.3446
      4 C3          2.3291    3.8994   -2.4809 C.2       1 <0>         0.5347
      5 O2          2.3522    4.4351   -3.5733 O.2       1 <0>        -0.5157
      6 C4          1.2678    4.1664   -1.5846 C.2       1 <0>        -0.2978
      7 C5          0.2201    4.9350   -1.9523 C.2       1 <0>         0.2662
      8 N1         -0.8034    5.1928   -1.0857 N.am      1 <0>        -0.5404
      9 C6         -0.8540    4.7189    0.1656 C.2       1 <0>         0.7056
     10 O3         -1.8076    5.0030    0.8638 O.2       1 <0>        -0.5543
     11 N2          0.1178    3.9371    0.6762 N.am      1 <0>        -0.7093
     12 C7          1.2682    3.6002   -0.1791 C.3       1 <0>         0.2362
     13 H1          2.1719    3.9464    0.3224 H         1 <0>         0.0989
     14 C8          1.3458    2.0988   -0.2832 C.ar      1 <0>        -0.0818
     15 C9          0.9988    1.4690   -1.4639 C.ar      1 <0>        -0.0673
     16 C10         1.0697    0.0922   -1.5601 C.ar      1 <0>        -0.1026
     17 C11         1.4877   -0.6569   -0.4742 C.ar      1 <0>        -0.0189
     18 C12         1.8351   -0.0274    0.7073 C.ar      1 <0>        -0.0999
     19 C13         1.7644    1.3510    0.8028 C.ar      1 <0>        -0.0134
     20 Cl1         2.1997    2.1420    2.2856 Cl        1 <0>        -0.0524
     21 Cl2         1.5767   -2.3864   -0.5952 Cl        1 <0>        -0.0534
     22 C14        -1.9082    6.0346   -1.5514 C.3       1 <0>         0.0656
     23 C15         0.1799    5.5182   -3.3413 C.3       1 <0>        -0.1343
     24 H2          5.8032    2.2588   -1.5884 H         1 <0>         0.0661
     25 H3          4.8816    0.8994   -2.2746 H         1 <0>         0.0653
     26 H4          6.1689    1.6740   -3.2293 H         1 <0>         0.0793
     27 H5          3.9281    2.4128   -3.9919 H         1 <0>         0.0671
     28 H6          4.8497    3.7722   -3.3057 H         1 <0>         0.0674
     29 H7          0.0608    3.6042    1.5855 H         1 <0>         0.4321
     30 H8          0.6764    2.0535   -2.3129 H         1 <0>         0.1350
     31 H9          0.7984   -0.3993   -2.4827 H         1 <0>         0.1411
     32 H10         2.1618   -0.6116    1.5549 H         1 <0>         0.1470
     33 H11        -2.6288    5.4217   -2.0928 H         1 <0>         0.0769
     34 H12        -2.3971    6.4990   -0.6950 H         1 <0>         0.1017
     35 H13        -1.5208    6.8095   -2.2128 H         1 <0>         0.0918
     36 H14         0.1115    4.7122   -4.0719 H         1 <0>         0.1036
     37 H15        -0.6887    6.1698   -3.4368 H         1 <0>         0.0792
     38 H16         1.0877    6.0944   -3.5198 H         1 <0>         0.1129
@<TRIPOS>BOND
     1    1    2 1
     2    1   24 1
     3    1   25 1
     4    1   26 1
     5    2    3 1
     6    2   27 1
     7    2   28 1
     8    3    4 1
     9    4    5 2
    10    4    6 1
    11    6   12 1
    12    6    7 2
    13    7    8 1
    14    7   23 1
    15    8    9 am
    16    8   22 1
    17    9   10 2
    18    9   11 am
    19   11   12 1
    20   11   29 1
    21   12   13 1
    22   12   14 1
    23   14   19 ar
    24   14   15 ar
    25   15   16 ar
    26   15   30 1
    27   16   17 ar
    28   16   31 1
    29   17   18 ar
    30   17   21 1
    31   18   19 ar
    32   18   32 1
    33   19   20 1
    34   22   33 1
    35   22   34 1
    36   22   35 1
    37   23   36 1
    38   23   37 1
    39   23   38 1
@<TRIPOS>MOLECULE
ZINC05686280
   43    46     0     0     0
SMALL
USER_CHARGES
3-(1,3-benzodioxol-5-yl)-7-hydroxy-2-methyl-6-propyl-chromen-4-one
@<TRIPOS>ATOM
      1 C1         -2.9362   -2.0188   -1.4014 C.3       1 <0>        -0.1542
      2 C2         -1.6196   -1.2394   -1.4098 C.3       1 <0>        -0.1188
      3 C3         -1.2947   -0.7717    0.0103 C.3       1 <0>        -0.0699
      4 C4          0.0021   -0.0041    0.0020 C.ar      1 <0>        -0.1462
      5 C5         -0.0164    1.3617    0.0095 C.ar      1 <0>         0.0099
      6 C6          1.1854    2.0704    0.0019 C.ar      1 <0>        -0.2589
      7 C7          2.4142    1.3870   -0.0135 C.ar      1 <0>         0.1859
      8 C8          2.4150   -0.0014   -0.0215 C.ar      1 <0>        -0.2437
      9 C9          1.2141   -0.6907   -0.0137 C.ar      1 <0>         0.2290
     10 O1          1.2178   -2.0482   -0.0219 O.3       1 <0>        -0.4905
     11 O2          3.5739    2.0734   -0.0214 O.3       1 <0>        -0.2198
     12 C10         3.6364    3.4076   -0.0152 C.2       1 <0>         0.1704
     13 C11         2.5273    4.1910   -0.0005 C.2       1 <0>        -0.2521
     14 C12         1.2040    3.5444    0.0091 C.2       1 <0>         0.4337
     15 O3          0.1742    4.1964    0.0220 O.2       1 <0>        -0.4578
     16 C13         2.6462    5.6696    0.0053 C.ar      1 <0>        -0.0056
     17 C14         3.2051    6.3293   -1.0878 C.ar      1 <0>        -0.0999
     18 C15         3.3106    7.7053   -1.0837 C.ar      1 <0>        -0.0970
     19 C16         2.8712    8.4350    0.0104 C.ar      1 <0>         0.0343
     20 C17         2.3168    7.7800    1.1086 C.ar      1 <0>         0.0367
     21 C18         2.2046    6.4011    1.1061 C.ar      1 <0>        -0.0757
     22 O4          1.9672    8.7129    2.0420 O.3       1 <0>        -0.3095
     23 C19         1.9359    9.9684    1.3379 C.3       1 <0>         0.2087
     24 O5          2.8682    9.7781    0.2574 O.3       1 <0>        -0.3039
     25 C20         4.9903    4.0692   -0.0251 C.3       1 <0>        -0.1244
     26 H1         -3.1698   -2.3550   -2.4224 H         1 <0>         0.0552
     27 H2         -3.7447   -1.3689   -1.0354 H         1 <0>         0.0548
     28 H3         -2.8407   -2.8928   -0.7404 H         1 <0>         0.0553
     29 H4         -0.8111   -1.8893   -1.7758 H         1 <0>         0.0654
     30 H5         -1.7151   -0.3654   -2.0709 H         1 <0>         0.0606
     31 H6         -2.1032   -0.1217    0.3762 H         1 <0>         0.0734
     32 H7         -1.1992   -1.6457    0.6714 H         1 <0>         0.0785
     33 H8         -0.9578    1.8910    0.0169 H         1 <0>         0.1479
     34 H9          3.3497   -0.5423   -0.0333 H         1 <0>         0.1481
     35 H10         2.1719   -2.5955   -0.0343 H         1 <0>         0.4417
     36 H11         3.5523    5.7638   -1.9399 H         1 <0>         0.1402
     37 H12         3.7402    8.2150   -1.9334 H         1 <0>         0.1402
     38 H13         1.7748    5.8921    1.9562 H         1 <0>         0.1345
     39 H14         0.9146   10.1614    0.9777 H         1 <0>         0.0870
     40 H15         2.2443   10.7772    2.0166 H         1 <0>         0.1352
     41 H16         4.8644    5.1620   -0.0183 H         1 <0>         0.1076
     42 H17         5.5385    3.7689   -0.9302 H         1 <0>         0.0973
     43 H18         5.5561    3.7597    0.8660 H         1 <0>         0.0962
@<TRIPOS>BOND
     1    1    2 1
     2    1   26 1
     3    1   27 1
     4    1   28 1
     5    2    3 1
     6    2   29 1
     7    2   30 1
     8    3    4 1
     9    3   31 1
    10    3   32 1
    11    4    9 ar
    12    4    5 ar
    13    5    6 ar
    14    5   33 1
    15    6   14 1
    16    6    7 ar
    17    7    8 ar
    18    7   11 1
    19    8    9 ar
    20    8   34 1
    21    9   10 1
    22   10   35 1
    23   11   12 1
    24   12   13 2
    25   12   25 1
    26   13   14 1
    27   13   16 1
    28   14   15 2
    29   16   21 ar
    30   16   17 ar
    31   17   18 ar
    32   17   36 1
    33   18   19 ar
    34   18   37 1
    35   19   24 1
    36   19   20 ar
    37   20   21 ar
    38   20   22 1
    39   21   38 1
    40   22   23 1
    41   23   24 1
    42   23   39 1
    43   23   40 1
    44   25   41 1
    45   25   42 1
    46   25   43 1
@<TRIPOS>MOLECULE
ZINC40467145
   42    45     0     0     0
SMALL
USER_CHARGES

@<TRIPOS>ATOM
      1 C1          0.5826    1.7962    1.7275 C.2       1 <0>        -0.2132
      2 C2          1.7058    2.0685    0.9400 C.2       1 <0>        -0.1020
      3 C3          2.3928    0.8775    0.7859 C.2       1 <0>        -0.0192
      4 N1          1.6951   -0.0936    1.4686 N.pl3     1 <0>        -0.5249
      5 H1          1.9439   -1.0289    1.5341 H         1 <0>         0.4222
      6 C4          0.5990    0.4773    2.0352 C.2       1 <0>         0.0529
      7 C5          3.5929    0.6914    0.0596 C.2       1 <0>         0.1506
      8 C6          4.2436   -0.5053    0.1134 C.2       1 <0>        -0.3286
      9 C7          3.6957   -1.8692    0.0549 C.2       1 <0>         0.5527
     10 O1          2.4996   -2.0694   -0.0574 O.2       1 <0>        -0.4919
     11 N2          4.5587   -2.8682    0.1290 N.am      1 <0>        -0.5648
     12 C8          5.9070   -2.6226    0.2553 C.2       1 <0>         0.4183
     13 N3          6.8941   -3.4914    0.3417 N.2       1 <0>        -0.4285
     14 C9          6.6235   -4.8157    0.4723 C.2       1 <0>         0.3013
     15 N4          6.5492   -5.7581   -0.4627 N.2       1 <0>        -0.5075
     16 C10         6.2723   -7.0058   -0.1483 C.2       1 <0>         0.0363
     17 C11         6.0576   -7.3464    1.1465 C.2       1 <0>        -0.1977
     18 S1          6.2789   -5.7635    1.9486 S.3       1 <0>        -0.0191
     19 S2          5.9925   -0.8392    0.2661 S.3       1 <0>         0.1321
     20 C12         4.0749   -4.2500    0.0768 C.3       1 <0>         0.0985
     21 C13         3.0139   -4.4601    1.1590 C.3       1 <0>        -0.1349
     22 C14         2.5087   -5.9032    1.1045 C.3       1 <0>        -0.1130
     23 C15         1.8960   -6.1775   -0.2704 C.3       1 <0>        -0.1210
     24 C16         2.9569   -5.9674   -1.3526 C.3       1 <0>        -0.1124
     25 C17         3.4622   -4.5242   -1.2981 C.3       1 <0>        -0.1246
     26 H2         -0.1636    2.5121    2.0392 H         1 <0>         0.1486
     27 H3          1.9841    3.0277    0.5290 H         1 <0>         0.1532
     28 H4         -0.1385   -0.0372    2.6333 H         1 <0>         0.1737
     29 H5          3.9933    1.4974   -0.5373 H         1 <0>         0.1698
     30 H6          6.2157   -7.7580   -0.9212 H         1 <0>         0.1735
     31 H7          5.8220   -8.3091    1.5756 H         1 <0>         0.2021
     32 H8          4.9072   -4.9330    0.2465 H         1 <0>         0.1178
     33 H9          3.4504   -4.2647    2.1385 H         1 <0>         0.0625
     34 H10         2.1816   -3.7771    0.9894 H         1 <0>         0.0918
     35 H11         3.3410   -6.5863    1.2742 H         1 <0>         0.0623
     36 H12         1.7528   -6.0529    1.8755 H         1 <0>         0.0709
     37 H13         1.5360   -7.2056   -0.3092 H         1 <0>         0.0671
     38 H14         1.0637   -5.4944   -0.4401 H         1 <0>         0.0656
     39 H15         3.7892   -6.6504   -1.1829 H         1 <0>         0.0643
     40 H16         2.5204   -6.1627   -2.3321 H         1 <0>         0.0701
     41 H17         2.6299   -3.8412   -1.4677 H         1 <0>         0.0807
     42 H18         4.2180   -4.3745   -2.0690 H         1 <0>         0.0647
@<TRIPOS>BOND
     1    1    6 2
     2    1    2 1
     3    1   26 1
     4    2    3 2
     5    2   27 1
     6    3    4 1
     7    3    7 1
     8    4    5 1
     9    4    6 1
    10    6   28 1
    11    7    8 2
    12    7   29 1
    13    8   19 1
    14    8    9 1
    15    9   10 2
    16    9   11 am
    17   11   12 1
    18   11   20 1
    19   12   13 2
    20   12   19 1
    21   13   14 1
    22   14   18 1
    23   14   15 2
    24   15   16 1
    25   16   17 2
    26   16   30 1
    27   17   18 1
    28   17   31 1
    29   20   25 1
    30   20   21 1
    31   20   32 1
    32   21   22 1
    33   21   33 1
    34   21   34 1
    35   22   23 1
    36   22   35 1
    37   22   36 1
    38   23   24 1
    39   23   37 1
    40   23   38 1
    41   24   25 1
    42   24   39 1
    43   24   40 1
    44   25   41 1
    45   25   42 1
@<TRIPOS>MOLECULE
ZINC67262231
   47    51     0     0     0
SMALL
USER_CHARGES

@<TRIPOS>ATOM
      1 C1         -0.0184    1.5028    0.0103 C.3       1 <0>        -0.1182
      2 C2          0.0021   -0.0041    0.0020 C.ar      1 <0>        -0.0863
      3 C3          0.0057   -0.6888   -1.1991 C.ar      1 <0>        -0.1085
      4 C4          0.0245   -2.0707   -1.2067 C.ar      1 <0>        -0.1166
      5 C5          0.0400   -2.7685   -0.0132 C.ar      1 <0>        -0.1038
      6 C6          0.0373   -2.0840    1.1875 C.ar      1 <0>        -0.1135
      7 C7          0.0229   -0.7015    1.1951 C.ar      1 <0>        -0.0992
      8 C8          0.0538   -2.8445    2.4885 C.3       1 <0>         0.1675
      9 N1          1.4402   -3.0731    2.9030 N.pl3     1 <0>        -0.6803
     10 C9          1.7071   -3.7543    4.0725 C.2       1 <0>         0.4801
     11 C10         3.0938   -3.9844    4.5019 C.ar      1 <0>        -0.1411
     12 C11         4.1794   -3.5289    3.7534 C.ar      1 <0>        -0.0597
     13 C12         5.4603   -3.7699    4.1993 C.ar      1 <0>        -0.1209
     14 C13         5.6749   -4.4601    5.3837 C.ar      1 <0>        -0.0619
     15 C14         4.6114   -4.9169    6.1341 C.ar      1 <0>        -0.1177
     16 C15         3.3137   -4.6840    5.7025 C.ar      1 <0>         0.1966
     17 N2          2.2158   -5.1217    6.4214 N.pl3     1 <0>        -0.3531
     18 C16         0.9490   -4.8731    5.9636 C.2       1 <0>         0.3014
     19 N3          0.7231   -4.2034    4.8238 N.2       1 <0>        -0.5321
     20 C17         0.0863   -5.4376    6.9052 C.2       1 <0>        -0.0080
     21 N4          0.8272   -5.9910    7.8698 N.2       1 <0>        -0.1896
     22 N5          2.0790   -5.8272    7.6228 N.2       1 <0>        -0.0858
     23 C18        -1.3932   -5.4245    6.8456 C.ar      1 <0>         0.0054
     24 C19        -2.0629   -4.3240    6.3102 C.ar      1 <0>        -0.0901
     25 C20        -3.4416   -4.3178    6.2576 C.ar      1 <0>        -0.1211
     26 C21        -4.1598   -5.4000    6.7343 C.ar      1 <0>        -0.1179
     27 C22        -3.5015   -6.4943    7.2664 C.ar      1 <0>        -0.1208
     28 C23        -2.1229   -6.5150    7.3193 C.ar      1 <0>        -0.0962
     29 H1          1.0042    1.8801    0.0026 H         1 <0>         0.0721
     30 H2         -0.5455    1.8639   -0.8728 H         1 <0>         0.0686
     31 H3         -0.5286    1.8543    0.9071 H         1 <0>         0.0681
     32 H4         -0.0064   -0.1437   -2.1314 H         1 <0>         0.1245
     33 H5          0.0266   -2.6056   -2.1449 H         1 <0>         0.1259
     34 H6          0.0540   -3.8484   -0.0191 H         1 <0>         0.1245
     35 H7          0.0246   -0.1666    2.1333 H         1 <0>         0.1244
     36 H8         -0.4637   -2.2663    3.2539 H         1 <0>         0.0847
     37 H9         -0.4484   -3.8028    2.3555 H         1 <0>         0.0858
     38 H10         2.1705   -2.7454    2.3551 H         1 <0>         0.4155
     39 H11         4.0167   -2.9916    2.8308 H         1 <0>         0.1404
     40 H12         6.3035   -3.4193    3.6227 H         1 <0>         0.1426
     41 H13         6.6846   -4.6419    5.7212 H         1 <0>         0.1451
     42 H14         4.7883   -5.4535    7.0545 H         1 <0>         0.1502
     43 H15        -1.5033   -3.4785    5.9381 H         1 <0>         0.1253
     44 H16        -3.9612   -3.4663    5.8437 H         1 <0>         0.1230
     45 H17        -5.2389   -5.3902    6.6912 H         1 <0>         0.1214
     46 H18        -4.0677   -7.3360    7.6369 H         1 <0>         0.1240
     47 H19        -1.6099   -7.3717    7.7309 H         1 <0>         0.1251
@<TRIPOS>BOND
     1    1    2 1
     2    1   29 1
     3    1   30 1
     4    1   31 1
     5    2    7 ar
     6    2    3 ar
     7    3    4 ar
     8    3   32 1
     9    4    5 ar
    10    4   33 1
    11    5    6 ar
    12    5   34 1
    13    6    7 ar
    14    6    8 1
    15    7   35 1
    16    8    9 1
    17    8   36 1
    18    8   37 1
    19    9   10 1
    20    9   38 1
    21   10   19 2
    22   10   11 1
    23   11   16 ar
    24   11   12 ar
    25   12   13 ar
    26   12   39 1
    27   13   14 ar
    28   13   40 1
    29   14   15 ar
    30   14   41 1
    31   15   16 ar
    32   15   42 1
    33   16   17 1
    34   17   22 1
    35   17   18 1
    36   18   19 1
    37   18   20 2
    38   20   21 1
    39   20   23 1
    40   21   22 2
    41   23   28 ar
    42   23   24 ar
    43   24   25 ar
    44   24   43 1
    45   25   26 ar
    46   25   44 1
    47   26   27 ar
    48   26   45 1
    49   27   28 ar
    50   27   46 1
    51   28   47 1
@<TRIPOS>MOLECULE
ZINC04645886
   50    52     0     0     0
SMALL
USER_CHARGES
N-[1-[1-(2-ethyl-6-methyl-phenyl)tetrazol-5-yl]-1-methyl-ethyl]-2-methyl-aniline
@<TRIPOS>ATOM
      1 C1          3.4699    4.0419    3.0782 C.3       1 <0>        -0.1735
      2 C2          2.4847    2.9043    2.8023 C.3       1 <0>        -0.0960
      3 C3          1.4477    3.3669    1.8116 C.ar      1 <0>        -0.0433
      4 C4          0.2362    3.8585    2.2576 C.ar      1 <0>        -0.1137
      5 C5         -0.7137    4.2880    1.3494 C.ar      1 <0>        -0.0827
      6 C6         -0.4586    4.2163   -0.0080 C.ar      1 <0>        -0.1152
      7 C7          0.7487    3.7209   -0.4599 C.ar      1 <0>        -0.0531
      8 C8          1.7067    3.2942    0.4499 C.ar      1 <0>         0.1037
      9 N1          2.9336    2.7902   -0.0061 N.pl3     1 <0>        -0.3155
     10 C9          3.9741    3.4921   -0.5052 C.2       1 <0>         0.2567
     11 N2          4.9129    2.6335   -0.8062 N.2       1 <0>        -0.3272
     12 N3          4.5370    1.4367   -0.5314 N.2       1 <0>        -0.0316
     13 N4          3.3466    1.4465   -0.0359 N.2       1 <0>        -0.0668
     14 C10         4.0402    4.9872   -0.6827 C.3       1 <0>         0.2708
     15 C11         3.0084    5.4231   -1.7250 C.3       1 <0>        -0.2005
     16 C12         3.7387    5.6730    0.6513 C.3       1 <0>        -0.1909
     17 N5          5.3811    5.3664   -1.1347 N.pl3     1 <0>        -0.7337
     18 C13         5.6862    6.7096   -1.3661 C.ar      1 <0>         0.2209
     19 C14         4.7018    7.6806   -1.2305 C.ar      1 <0>        -0.2112
     20 C15         5.0079    9.0080   -1.4558 C.ar      1 <0>        -0.0791
     21 C16         6.2903    9.3705   -1.8260 C.ar      1 <0>        -0.1717
     22 C17         7.2712    8.4062   -1.9665 C.ar      1 <0>        -0.0726
     23 C18         6.9730    7.0771   -1.7380 C.ar      1 <0>        -0.1544
     24 C19         8.0425    6.0267   -1.8924 C.3       1 <0>        -0.1100
     25 C20         1.0258    3.6432   -1.9392 C.3       1 <0>        -0.1337
     26 H1          4.2199    3.7073    3.7948 H         1 <0>         0.0639
     27 H2          3.9595    4.3320    2.1485 H         1 <0>         0.0711
     28 H3          2.9320    4.8970    3.4877 H         1 <0>         0.0640
     29 H4          1.9951    2.6142    3.7320 H         1 <0>         0.0851
     30 H5          3.0226    2.0492    2.3927 H         1 <0>         0.0744
     31 H6          0.0325    3.9115    3.3169 H         1 <0>         0.1388
     32 H7         -1.6584    4.6761    1.7005 H         1 <0>         0.1378
     33 H8         -1.2042    4.5484   -0.7153 H         1 <0>         0.1399
     34 H9          2.0184    5.4443   -1.2694 H         1 <0>         0.0846
     35 H10         3.2608    6.4180   -2.0920 H         1 <0>         0.1013
     36 H11         3.0110    4.7178   -2.5560 H         1 <0>         0.0729
     37 H12         4.5900    5.5541    1.3215 H         1 <0>         0.0801
     38 H13         3.5555    6.7339    0.4812 H         1 <0>         0.0932
     39 H14         2.8557    5.2194    1.1016 H         1 <0>         0.0798
     40 H15         6.0571    4.6847   -1.2732 H         1 <0>         0.4131
     41 H16         3.6991    7.3977   -0.9457 H         1 <0>         0.1352
     42 H17         4.2439    9.7637   -1.3472 H         1 <0>         0.1201
     43 H18         6.5259   10.4090   -2.0059 H         1 <0>         0.1181
     44 H19         8.2715    8.6926   -2.2557 H         1 <0>         0.1212
     45 H20         8.0467    5.6606   -2.9191 H         1 <0>         0.0674
     46 H21         9.0145    6.4605   -1.6574 H         1 <0>         0.0678
     47 H22         7.8400    5.1992   -1.2124 H         1 <0>         0.0604
     48 H23         0.2837    3.0019   -2.4147 H         1 <0>         0.0809
     49 H24         0.9733    4.6423   -2.3717 H         1 <0>         0.0922
     50 H25         2.0210    3.2290   -2.1011 H         1 <0>         0.0608
@<TRIPOS>BOND
     1    1    2 1
     2    1   26 1
     3    1   27 1
     4    1   28 1
     5    2    3 1
     6    2   29 1
     7    2   30 1
     8    3    8 ar
     9    3    4 ar
    10    4    5 ar
    11    4   31 1
    12    5    6 ar
    13    5   32 1
    14    6    7 ar
    15    6   33 1
    16    7    8 ar
    17    7   25 1
    18    8    9 1
    19    9   13 1
    20    9   10 1
    21   10   11 2
    22   10   14 1
    23   11   12 1
    24   12   13 2
    25   14   15 1
    26   14   16 1
    27   14   17 1
    28   15   34 1
    29   15   35 1
    30   15   36 1
    31   16   37 1
    32   16   38 1
    33   16   39 1
    34   17   18 1
    35   17   40 1
    36   18   23 ar
    37   18   19 ar
    38   19   20 ar
    39   19   41 1
    40   20   21 ar
    41   20   42 1
    42   21   22 ar
    43   21   43 1
    44   22   23 ar
    45   22   44 1
    46   23   24 1
    47   24   45 1
    48   24   46 1
    49   24   47 1
    50   25   48 1
    51   25   49 1
    52   25   50 1
@<TRIPOS>MOLECULE
ZINC09018867
   40    42     0     0     0
SMALL
USER_CHARGES
7-[(2-chlorophenyl)methylsulfanyl]-5-tert-butyl-2,6,8,9-tetrazabicyclo[4.3.0]nona-4,7,9-trien-3-one
@<TRIPOS>ATOM
      1 C1         -2.5187    3.3114    0.0175 C.3       1 <0>        -0.1455
      2 C2         -2.4776    1.7822    0.0469 C.3       1 <0>        -0.0391
      3 C3         -3.2245    1.2285   -1.1682 C.3       1 <0>        -0.1626
      4 C4         -3.1446    1.2787    1.3285 C.3       1 <0>        -0.1622
      5 C5         -1.0446    1.3173    0.0104 C.2       1 <0>         0.1884
      6 C6         -0.0483    2.2189   -0.0468 C.2       1 <0>        -0.2400
      7 C7          1.2999    1.7820   -0.0750 C.2       1 <0>         0.5569
      8 O1          2.2050    2.5956   -0.1222 O.2       1 <0>        -0.5010
      9 N1          1.5767    0.4627   -0.0490 N.am      1 <0>        -0.6124
     10 H1          2.4977    0.1588   -0.0685 H         1 <0>         0.4378
     11 C8          0.5434   -0.4577    0.0051 C.2       1 <0>         0.4591
     12 N2         -0.7589   -0.0284    0.0322 N.pl3     1 <0>        -0.4434
     13 C9         -1.5646   -1.1344    0.0848 C.2       1 <0>         0.1990
     14 N3         -0.7955   -2.1957    0.0900 N.2       1 <0>        -0.2703
     15 N4          0.5375   -1.7683    0.0396 N.2       1 <0>        -0.3106
     16 S1         -3.3259   -1.1313    0.1374 S.3       1 <0>         0.0837
     17 C10        -3.7662   -2.8901    0.1960 C.3       1 <0>        -0.1172
     18 C11        -5.2659   -3.0311    0.2445 C.ar      1 <0>        -0.0699
     19 C12        -5.9175   -3.0706    1.4629 C.ar      1 <0>        -0.0890
     20 C13        -7.2933   -3.1956    1.5075 C.ar      1 <0>        -0.1128
     21 C14        -8.0177   -3.2908    0.3337 C.ar      1 <0>        -0.0975
     22 C15        -7.3669   -3.2567   -0.8850 C.ar      1 <0>        -0.1089
     23 C16        -5.9900   -3.1268   -0.9303 C.ar      1 <0>        -0.0214
     24 Cl1        -5.1717   -3.0844   -2.4607 Cl        1 <0>        -0.0569
     25 H2         -2.0435    3.6701   -0.8956 H         1 <0>         0.0696
     26 H3         -3.5552    3.6476    0.0439 H         1 <0>         0.0786
     27 H4         -1.9866    3.7058    0.8831 H         1 <0>         0.0695
     28 H5         -2.8817    0.2145   -1.3743 H         1 <0>         0.0756
     29 H6         -4.2947    1.2153   -0.9619 H         1 <0>         0.0832
     30 H7         -3.0292    1.8611   -2.0341 H         1 <0>         0.0726
     31 H8         -2.9024    1.9503    2.1522 H         1 <0>         0.0729
     32 H9         -4.2252    1.2502    1.1887 H         1 <0>         0.0833
     33 H10        -2.7814    0.2769    1.5577 H         1 <0>         0.0747
     34 H11        -0.2750    3.2746   -0.0671 H         1 <0>         0.1891
     35 H12        -3.3828   -3.3905   -0.6932 H         1 <0>         0.1117
     36 H13        -3.3297   -3.3445    1.0854 H         1 <0>         0.1105
     37 H14        -5.3518   -3.0004    2.3802 H         1 <0>         0.1368
     38 H15        -7.8023   -3.2230    2.4596 H         1 <0>         0.1342
     39 H16        -9.0924   -3.3922    0.3691 H         1 <0>         0.1359
     40 H17        -7.9328   -3.3318   -1.8018 H         1 <0>         0.1379
@<TRIPOS>BOND
     1    1    2 1
     2    1   25 1
     3    1   26 1
     4    1   27 1
     5    2    3 1
     6    2    4 1
     7    2    5 1
     8    3   28 1
     9    3   29 1
    10    3   30 1
    11    4   31 1
    12    4   32 1
    13    4   33 1
    14    5   12 1
    15    5    6 2
    16    6    7 1
    17    6   34 1
    18    7    8 2
    19    7    9 am
    20    9   10 1
    21    9   11 1
    22   11   15 2
    23   11   12 1
    24   12   13 1
    25   13   14 2
    26   13   16 1
    27   14   15 1
    28   16   17 1
    29   17   18 1
    30   17   35 1
    31   17   36 1
    32   18   23 ar
    33   18   19 ar
    34   19   20 ar
    35   19   37 1
    36   20   21 ar
    37   20   38 1
    38   21   22 ar
    39   21   39 1
    40   22   23 ar
    41   22   40 1
    42   23   24 1
@<TRIPOS>MOLECULE
ZINC14607870
   38    41     0     0     0
SMALL
USER_CHARGES
2-(1,3-benzoxazol-2-yl)-4-[(4-chlorophenyl)methyl]-5-methyl-pyrazol-3-ol
@<TRIPOS>ATOM
      1 C1         -4.7415   -1.4069    0.0399 C.3       1 <0>        -0.0810
      2 C2         -3.2348   -1.4281    0.0250 C.2       1 <0>         0.1133
      3 C3         -2.4332   -2.5750    0.0118 C.2       1 <0>        -0.2059
      4 C4         -1.1343   -2.1764   -0.0043 C.2       1 <0>         0.2769
      5 N1         -1.1247   -0.8142    0.0084 N.pl3     1 <0>        -0.3099
      6 N2         -2.4556   -0.3775    0.0230 N.2       1 <0>        -0.2203
      7 C5          0.0021   -0.0041    0.0020 C.2       1 <0>         0.4838
      8 N3         -0.0156    1.3020    0.0092 N.2       1 <0>        -0.4517
      9 C6          1.2666    1.7565   -0.0006 C.ar      1 <0>         0.0357
     10 C7          1.8386    3.0298    0.0003 C.ar      1 <0>        -0.0588
     11 C8          3.2094    3.1628   -0.0121 C.ar      1 <0>        -0.1117
     12 C9          4.0234    2.0401   -0.0254 C.ar      1 <0>        -0.0900
     13 C10         3.4714    0.7756   -0.0269 C.ar      1 <0>        -0.0858
     14 C11         2.0940    0.6232   -0.0146 C.ar      1 <0>         0.0118
     15 O1          1.2705   -0.4494   -0.0125 O.3       1 <0>        -0.2099
     16 O2         -0.0460   -2.9869   -0.0254 O.3       1 <0>        -0.4487
     17 C12        -2.9239   -3.9999    0.0084 C.3       1 <0>         0.0014
     18 C13        -3.0999   -4.4672   -1.4134 C.ar      1 <0>        -0.0758
     19 C14        -4.3144   -4.2968   -2.0514 C.ar      1 <0>        -0.1009
     20 C15        -4.4747   -4.7201   -3.3573 C.ar      1 <0>        -0.1096
     21 C16        -3.4229   -5.3247   -4.0223 C.ar      1 <0>        -0.0367
     22 C17        -2.2094   -5.5001   -3.3814 C.ar      1 <0>        -0.1096
     23 C18        -2.0485   -5.0712   -2.0773 C.ar      1 <0>        -0.0960
     24 Cl1        -3.6255   -5.8625   -5.6604 Cl        1 <0>        -0.0709
     25 H1         -5.1149   -1.3967   -0.9842 H         1 <0>         0.0895
     26 H2         -5.1123   -2.2942    0.5530 H         1 <0>         0.0885
     27 H3         -5.0872   -0.5145    0.5615 H         1 <0>         0.0850
     28 H4          1.2088    3.9071    0.0103 H         1 <0>         0.1416
     29 H5          3.6531    4.1475   -0.0110 H         1 <0>         0.1429
     30 H6          5.0971    2.1565   -0.0350 H         1 <0>         0.1459
     31 H7          4.1117   -0.0941   -0.0381 H         1 <0>         0.1394
     32 H8          0.2802   -3.2304    0.8517 H         1 <0>         0.4043
     33 H9         -2.1962   -4.6359    0.5125 H         1 <0>         0.0866
     34 H10        -3.8791   -4.0564    0.5304 H         1 <0>         0.0937
     35 H11        -5.1368   -3.8288   -1.5307 H         1 <0>         0.1336
     36 H12        -5.4223   -4.5830   -3.8570 H         1 <0>         0.1341
     37 H13        -1.3878   -5.9716   -3.9001 H         1 <0>         0.1325
     38 H14        -1.1011   -5.2078   -1.5771 H         1 <0>         0.1329
@<TRIPOS>BOND
     1    1    2 1
     2    1   25 1
     3    1   26 1
     4    1   27 1
     5    2    6 2
     6    2    3 1
     7    3    4 2
     8    3   17 1
     9    4    5 1
    10    4   16 1
    11    5    6 1
    12    5    7 1
    13    7   15 1
    14    7    8 2
    15    8    9 1
    16    9   14 ar
    17    9   10 ar
    18   10   11 ar
    19   10   28 1
    20   11   12 ar
    21   11   29 1
    22   12   13 ar
    23   12   30 1
    24   13   14 ar
    25   13   31 1
    26   14   15 1
    27   16   32 1
    28   17   18 1
    29   17   33 1
    30   17   34 1
    31   18   23 ar
    32   18   19 ar
    33   19   20 ar
    34   19   35 1
    35   20   21 ar
    36   20   36 1
    37   21   22 ar
    38   21   24 1
    39   22   23 ar
    40   22   37 1
    41   23   38 1
@<TRIPOS>MOLECULE
ZINC36623405
   40    41     0     0     0
SMALL
USER_CHARGES

@<TRIPOS>ATOM
      1 C1         -0.0187    1.5258    0.0104 C.3       1 <0>        -0.1477
      2 C2          0.0021   -0.0041    0.0020 C.3       1 <0>        -0.0887
      3 C3          0.7309   -0.5033    1.2229 C.ar      1 <0>        -0.0761
      4 C4          2.0970   -0.7095    1.1762 C.ar      1 <0>        -0.1119
      5 C5          2.7656   -1.1675    2.2961 C.ar      1 <0>        -0.1013
      6 C6          2.0682   -1.4187    3.4629 C.ar      1 <0>        -0.1013
      7 C7          0.7022   -1.2116    3.5099 C.ar      1 <0>        -0.1131
      8 C8          0.0343   -0.7496    2.3912 C.ar      1 <0>        -0.1128
      9 C9          2.7969   -1.9189    4.6834 C.3       1 <0>         0.1866
     10 H1          3.7508   -2.3533    4.3845 H         1 <0>         0.1018
     11 C10         3.0457   -0.7529    5.6424 C.3       1 <0>        -0.1596
     12 N1          1.9850   -2.9376    5.3537 N.am      1 <0>        -0.7156
     13 C11         2.5766   -3.8691    6.1275 C.2       1 <0>         0.5522
     14 O1          3.7839   -3.8640    6.2693 O.2       1 <0>        -0.4963
     15 C12         1.7576   -4.8967    6.8035 C.ar      1 <0>        -0.0800
     16 C13         0.3712   -4.9091    6.6382 C.ar      1 <0>        -0.0746
     17 C14        -0.3872   -5.8710    7.2715 C.ar      1 <0>        -0.0580
     18 C15         0.2221   -6.8232    8.0703 C.ar      1 <0>        -0.0154
     19 C16         1.5944   -6.8177    8.2396 C.ar      1 <0>        -0.0557
     20 C17         2.3674   -5.8637    7.6063 C.ar      1 <0>         0.0083
     21 Cl1         4.0910   -5.8620    7.8137 Cl        1 <0>         0.0073
     22 N2         -0.5993   -7.8520    8.7469 N.pl3     1 <0>         0.0280
     23 O2         -1.7994   -7.8592    8.6012 O.2       1 <0>        -0.1417
     24 O3         -0.0701   -8.6850    9.4452 O.3       1 <0>        -0.1427
     25 H2          1.0039    1.9031    0.0027 H         1 <0>         0.0562
     26 H3         -0.5459    1.8868   -0.8726 H         1 <0>         0.0599
     27 H4         -0.5289    1.8773    0.9072 H         1 <0>         0.0559
     28 H5         -1.0205   -0.3814    0.0098 H         1 <0>         0.0730
     29 H6          0.5123   -0.3556   -0.8948 H         1 <0>         0.0733
     30 H7          2.6419   -0.5132    0.2646 H         1 <0>         0.1251
     31 H8          3.8328   -1.3293    2.2593 H         1 <0>         0.1260
     32 H9          0.1573   -1.4082    4.4213 H         1 <0>         0.1184
     33 H10        -1.0323   -0.5842    2.4291 H         1 <0>         0.1242
     34 H11         3.5728   -1.1146    6.5252 H         1 <0>         0.0672
     35 H12         3.6498    0.0051    5.1437 H         1 <0>         0.0719
     36 H13         2.0918   -0.3184    5.9413 H         1 <0>         0.0603
     37 H14         1.0216   -2.9417    5.2405 H         1 <0>         0.3991
     38 H15        -0.1062   -4.1666    6.0160 H         1 <0>         0.1578
     39 H16        -1.4596   -5.8813    7.1441 H         1 <0>         0.1682
     40 H17         2.0633   -7.5631    8.8648 H         1 <0>         0.1719
@<TRIPOS>BOND
     1    1    2 1
     2    1   25 1
     3    1   26 1
     4    1   27 1
     5    2    3 1
     6    2   28 1
     7    2   29 1
     8    3    8 ar
     9    3    4 ar
    10    4    5 ar
    11    4   30 1
    12    5    6 ar
    13    5   31 1
    14    6    7 ar
    15    6    9 1
    16    7    8 ar
    17    7   32 1
    18    8   33 1
    19    9   10 1
    20    9   11 1
    21    9   12 1
    22   11   34 1
    23   11   35 1
    24   11   36 1
    25   12   13 am
    26   12   37 1
    27   13   14 2
    28   13   15 1
    29   15   20 ar
    30   15   16 ar
    31   16   17 ar
    32   16   38 1
    33   17   18 ar
    34   17   39 1
    35   18   19 ar
    36   18   22 1
    37   19   20 ar
    38   19   40 1
    39   20   21 1
    40   22   23 2
    41   22   24 1
@<TRIPOS>MOLECULE
ZINC64837523
   48    50     0     0     0
SMALL
USER_CHARGES

@<TRIPOS>ATOM
      1 C1          3.3794   -6.8159   -7.0378 C.3       1 <0>        -0.1155
      2 C2          2.6024   -6.2225   -5.8910 C.ar      1 <0>        -0.0934
      3 C3          2.2882   -7.0031   -4.7933 C.ar      1 <0>        -0.0958
      4 C4          1.5764   -6.4625   -3.7408 C.ar      1 <0>        -0.1610
      5 C5          1.1759   -5.1329   -3.7852 C.ar      1 <0>         0.1451
      6 C6          1.4931   -4.3519   -4.8890 C.ar      1 <0>        -0.0964
      7 C7          2.2102   -4.8974   -5.9359 C.ar      1 <0>        -0.0995
      8 C8          1.0602   -2.9094   -4.9419 C.3       1 <0>        -0.1147
      9 N1          0.4553   -4.5831   -2.7225 N.pl3     1 <0>        -1.0527
     10 S1          0.7818   -5.0546   -1.1690 S.o2      1 <0>         2.6908
     11 O1         -0.0007   -4.2261   -0.3201 O.2       1 <0>        -0.9447
     12 O2          0.6883   -6.4724   -1.1467 O.2       1 <0>        -0.9480
     13 C9          2.4676   -4.6560   -0.8469 C.ar      1 <0>        -0.6728
     14 C10         3.3797   -5.6635   -0.6046 C.ar      1 <0>         0.0033
     15 C11         4.7122   -5.3470   -0.3506 C.ar      1 <0>        -0.0378
     16 C12         5.1171   -4.0137   -0.3426 C.ar      1 <0>        -0.0414
     17 C13         4.1970   -3.0144   -0.5861 C.ar      1 <0>        -0.1365
     18 C14         2.8759   -3.3347   -0.8430 C.ar      1 <0>         0.0270
     19 C15         1.8769   -2.2394   -1.1139 C.3       1 <0>        -0.1499
     20 C16         5.6973   -6.4261   -0.0888 C.2       1 <0>        -0.2260
     21 C17         5.6924   -7.3105    1.0167 C.2       1 <0>         0.1235
     22 N2          6.7109   -8.1112    0.8955 N.2       1 <0>        -0.3155
     23 O3          7.4046   -7.7698   -0.2902 O.3       1 <0>        -0.0758
     24 C18         6.7616   -6.7457   -0.8702 C.2       1 <0>         0.0963
     25 C19         7.1525   -6.0674   -2.1579 C.3       1 <0>        -0.0917
     26 C20         4.6850   -7.3220    2.1375 C.3       1 <0>        -0.0926
     27 H1          4.4467   -6.6831   -6.8609 H         1 <0>         0.0707
     28 H2          3.1539   -7.8793   -7.1178 H         1 <0>         0.0678
     29 H3          3.0995   -6.3145   -7.9643 H         1 <0>         0.0669
     30 H4          2.5996   -8.0366   -4.7595 H         1 <0>         0.1288
     31 H5          1.3311   -7.0727   -2.8841 H         1 <0>         0.1587
     32 H6          2.4610   -4.2894   -6.7926 H         1 <0>         0.1270
     33 H7          1.8355   -2.2811   -4.5034 H         1 <0>         0.0738
     34 H8          0.8986   -2.6163   -5.9792 H         1 <0>         0.0720
     35 H9          0.1334   -2.7873   -4.3813 H         1 <0>         0.0632
     36 H10        -0.2363   -3.9250   -2.8944 H         1 <0>         0.4259
     37 H11         3.0606   -6.6953   -0.6116 H         1 <0>         0.1439
     38 H12         6.1489   -3.7628   -0.1459 H         1 <0>         0.1326
     39 H13         4.5097   -1.9807   -0.5802 H         1 <0>         0.1374
     40 H14         1.3579   -1.9843   -0.1899 H         1 <0>         0.1014
     41 H15         2.3963   -1.3596   -1.4936 H         1 <0>         0.0868
     42 H16         1.1538   -2.5821   -1.8540 H         1 <0>         0.0668
     43 H17         7.8316   -5.2424   -1.9424 H         1 <0>         0.0970
     44 H18         7.6489   -6.7855   -2.8107 H         1 <0>         0.0913
     45 H19         6.2599   -5.6837   -2.6520 H         1 <0>         0.0956
     46 H20         3.8596   -7.9845    1.8773 H         1 <0>         0.0941
     47 H21         5.1619   -7.6771    3.0511 H         1 <0>         0.0868
     48 H22         4.3050   -6.3126    2.2948 H         1 <0>         0.0874
@<TRIPOS>BOND
     1    1    2 1
     2    1   27 1
     3    1   28 1
     4    1   29 1
     5    2    7 ar
     6    2    3 ar
     7    3    4 ar
     8    3   30 1
     9    4    5 ar
    10    4   31 1
    11    5    6 ar
    12    5    9 1
    13    6    7 ar
    14    6    8 1
    15    7   32 1
    16    8   33 1
    17    8   34 1
    18    8   35 1
    19    9   10 1
    20    9   36 1
    21   10   11 2
    22   10   12 2
    23   10   13 1
    24   13   18 ar
    25   13   14 ar
    26   14   15 ar
    27   14   37 1
    28   15   16 ar
    29   15   20 1
    30   16   17 ar
    31   16   38 1
    32   17   18 ar
    33   17   39 1
    34   18   19 1
    35   19   40 1
    36   19   41 1
    37   19   42 1
    38   20   24 2
    39   20   21 1
    40   21   22 2
    41   21   26 1
    42   22   23 1
    43   23   24 1
    44   24   25 1
    45   25   43 1
    46   25   44 1
    47   25   45 1
    48   26   46 1
    49   26   47 1
    50   26   48 1
@<TRIPOS>MOLECULE
ZINC12528731
   46    49     0     0     0
SMALL
USER_CHARGES
6-[(2Z)-2-allylimino-3-[(5-methyl-2-furyl)methyleneamino]thiazol-4-yl]-4H-1,4-benzoxazin-3-one
@<TRIPOS>ATOM
      1 C1         -4.3186    4.8046   -8.8267 C.3       1 <0>        -0.0811
      2 C2         -3.9928    4.0368   -7.5715 C.2       1 <0>         0.0205
      3 C3         -3.5003    2.7821   -7.5237 C.2       1 <0>        -0.2194
      4 C4         -3.3383    2.4527   -6.1654 C.2       1 <0>        -0.1350
      5 C5         -3.7549    3.5356   -5.4465 C.2       1 <0>        -0.0024
      6 O1         -4.1454    4.4889   -6.3162 O.3       1 <0>        -0.1568
      7 C6         -3.7693    3.6453   -3.9850 C.2       1 <0>         0.1972
      8 N1         -4.1876    4.7398   -3.4186 N.2       1 <0>        -0.2588
      9 N2         -4.0891    4.8915   -2.0293 N.pl3     1 <0>        -0.3746
     10 C7         -4.9209    5.7469   -1.3576 C.2       1 <0>         0.1785
     11 C8         -4.8073    5.8758   -0.0199 C.2       1 <0>        -0.2000
     12 S1         -3.4764    4.7467    0.3563 S.3       1 <0>        -0.0531
     13 C9         -3.1514    4.1816   -1.3064 C.2       1 <0>         0.3648
     14 N3         -2.2623    3.3177   -1.7278 N.2       1 <0>        -0.5415
     15 C10        -1.3555    2.6752   -0.7732 C.3       1 <0>         0.0948
     16 C11        -1.5527    1.1819   -0.8201 C.2       1 <0>        -0.1542
     17 C12        -0.5313    0.3930   -1.0447 C.2       1 <0>        -0.1697
     18 C13        -5.9394    6.5255   -2.0954 C.ar      1 <0>        -0.0411
     19 C14        -5.6953    6.9276   -3.4094 C.ar      1 <0>        -0.0604
     20 C15        -6.6475    7.6492   -4.1010 C.ar      1 <0>        -0.1093
     21 C16        -7.8436    7.9856   -3.4886 C.ar      1 <0>         0.0935
     22 C17        -8.0911    7.5922   -2.1730 C.ar      1 <0>         0.0889
     23 C18        -7.1439    6.8643   -1.4766 C.ar      1 <0>        -0.0946
     24 N4         -9.3071    7.9442   -1.5694 N.am      1 <0>        -0.6593
     25 C19       -10.3264    8.3673   -2.3482 C.2       1 <0>         0.4912
     26 O2        -11.3775    8.7047   -1.8455 O.2       1 <0>        -0.5067
     27 C20       -10.1524    8.4181   -3.8448 C.3       1 <0>         0.0495
     28 O3         -8.7866    8.7001   -4.1604 O.3       1 <0>        -0.2991
     29 H1         -4.6996    5.7906   -8.5608 H         1 <0>         0.0795
     30 H2         -3.4175    4.9138   -9.4300 H         1 <0>         0.0908
     31 H3         -5.0745    4.2646   -9.3970 H         1 <0>         0.0909
     32 H4         -3.2690    2.1510   -8.3691 H         1 <0>         0.1565
     33 H5         -2.9600    1.5222   -5.7684 H         1 <0>         0.1591
     34 H6         -3.4328    2.8177   -3.3780 H         1 <0>         0.1750
     35 H7         -5.3782    6.4991    0.6523 H         1 <0>         0.2075
     36 H8         -1.5691    3.0386    0.2320 H         1 <0>         0.0616
     37 H9         -0.3245    2.9139   -1.0344 H         1 <0>         0.0949
     38 H10        -2.5361    0.7621   -0.6684 H         1 <0>         0.1096
     39 H11        -0.6726   -0.6771   -1.0783 H         1 <0>         0.1036
     40 H12         0.4514    0.8131   -1.2008 H         1 <0>         0.0998
     41 H13        -4.7617    6.6701   -3.8874 H         1 <0>         0.1550
     42 H14        -6.4578    7.9556   -5.1191 H         1 <0>         0.1450
     43 H15        -7.3350    6.5595   -0.4583 H         1 <0>         0.1406
     44 H16        -9.4146    7.8844   -0.6072 H         1 <0>         0.4176
     45 H17       -10.7893    9.2004   -4.2578 H         1 <0>         0.1490
     46 H18       -10.4333    7.4568   -4.2751 H         1 <0>         0.1025
@<TRIPOS>BOND
     1    1    2 1
     2    1   29 1
     3    1   30 1
     4    1   31 1
     5    2    6 1
     6    2    3 2
     7    3    4 1
     8    3   32 1
     9    4    5 2
    10    4   33 1
    11    5    6 1
    12    5    7 1
    13    7    8 2
    14    7   34 1
    15    8    9 1
    16    9   13 1
    17    9   10 1
    18   10   11 2
    19   10   18 1
    20   11   12 1
    21   11   35 1
    22   12   13 1
    23   13   14 2
    24   14   15 1
    25   15   16 1
    26   15   36 1
    27   15   37 1
    28   16   17 2
    29   16   38 1
    30   17   39 1
    31   17   40 1
    32   18   23 ar
    33   18   19 ar
    34   19   20 ar
    35   19   41 1
    36   20   21 ar
    37   20   42 1
    38   21   28 1
    39   21   22 ar
    40   22   23 ar
    41   22   24 1
    42   23   43 1
    43   24   25 am
    44   24   44 1
    45   25   26 2
    46   25   27 1
    47   27   28 1
    48   27   45 1
    49   27   46 1
@<TRIPOS>MOLECULE
ZINC21252943
   52    55     0     0     0
SMALL
USER_CHARGES
(4S,7S)-7-(3-methoxyphenyl)-4-(4-methyl-3-nitro-phenyl)-1,3,4,6,7,8-hexahydroquinoline-2,5-dione
@<TRIPOS>ATOM
      1 C1          0.7100   -0.0533   -6.4144 C.3       1 <0>        -0.1372
      2 C2          1.1666   -0.0573   -4.9782 C.ar      1 <0>        -0.0210
      3 C3          0.4639    0.6595   -4.0275 C.ar      1 <0>        -0.1129
      4 C4          0.8802    0.6523   -2.7095 C.ar      1 <0>        -0.0751
      5 C5          2.0047   -0.0640   -2.3436 C.ar      1 <0>        -0.0782
      6 C6          2.7068   -0.7810   -3.2940 C.ar      1 <0>        -0.0414
      7 C7          2.2880   -0.7773   -4.6116 C.ar      1 <0>        -0.0378
      8 N1          3.0402   -1.5448   -5.6295 N.pl3     1 <0>         0.0242
      9 O1          2.4445   -2.1109   -6.5285 O.2       1 <0>        -0.1492
     10 O2          4.2549   -1.6102   -5.5680 O.3       1 <0>        -0.1508
     11 C8          2.4613   -0.0679   -0.9075 C.3       1 <0>         0.0089
     12 H1          3.3687   -0.6838   -0.8229 H         1 <0>         0.1186
     13 C9          1.3513   -0.6348   -0.0207 C.3       1 <0>        -0.1397
     14 C10         0.2300    0.3680    0.0682 C.2       1 <0>         0.5256
     15 O3         -0.9173   -0.0140    0.1569 O.2       1 <0>        -0.5007
     16 N2          0.4985    1.6850    0.0498 N.am      1 <0>        -0.6761
     17 C11         1.7882    2.1462   -0.0246 C.2       1 <0>         0.2313
     18 C12         2.7762    1.3447   -0.4749 C.2       1 <0>        -0.2801
     19 C13         4.1050    1.7942   -0.5516 C.2       1 <0>         0.4063
     20 O4          4.9657    1.0470   -0.9721 O.2       1 <0>        -0.4612
     21 C14         4.4789    3.1870   -0.1202 C.3       1 <0>        -0.1609
     22 C15         3.4985    3.6528    0.9613 C.3       1 <0>        -0.0345
     23 H2          3.5953    3.0298    1.8627 H         1 <0>         0.0963
     24 C16         2.0767    3.5639    0.4023 C.3       1 <0>        -0.0964
     25 C17         3.8045    5.0787    1.3413 C.ar      1 <0>        -0.0450
     26 C18         3.7439    6.0765    0.3858 C.ar      1 <0>        -0.1522
     27 C19         4.0231    7.3856    0.7314 C.ar      1 <0>        -0.0749
     28 C20         4.3636    7.7001    2.0330 C.ar      1 <0>        -0.2073
     29 C21         4.4255    6.7010    2.9932 C.ar      1 <0>         0.1316
     30 C22         4.1397    5.3886    2.6449 C.ar      1 <0>        -0.1438
     31 O5          4.7606    7.0077    4.2740 O.3       1 <0>        -0.3168
     32 C23         5.0365    8.3800    4.5615 C.3       1 <0>         0.0229
     33 H3         -0.1913    0.5699   -6.5109 H         1 <0>         0.0810
     34 H4          0.4799   -1.0820   -6.7288 H         1 <0>         0.1019
     35 H5          1.5081    0.3551   -7.0517 H         1 <0>         0.0774
     36 H6         -0.4121    1.2224   -4.3140 H         1 <0>         0.1467
     37 H7          0.3290    1.2090   -1.9661 H         1 <0>         0.1377
     38 H8          3.5829   -1.3438   -3.0074 H         1 <0>         0.1515
     39 H9          0.9757   -1.5719   -0.4575 H         1 <0>         0.1175
     40 H10         1.7507   -0.8332    0.9849 H         1 <0>         0.1190
     41 H11        -0.3235    2.4146    0.0948 H         1 <0>         0.4428
     42 H12         5.5024    3.1837    0.2828 H         1 <0>         0.1046
     43 H13         4.4276    3.8649   -0.9849 H         1 <0>         0.1066
     44 H14         1.9824    4.2343   -0.4647 H         1 <0>         0.1082
     45 H15         1.3591    3.8661    1.1792 H         1 <0>         0.1008
     46 H16         3.4776    5.8327   -0.6321 H         1 <0>         0.1246
     47 H17         3.9747    8.1631   -0.0166 H         1 <0>         0.1269
     48 H18         4.5809    8.7230    2.3027 H         1 <0>         0.1289
     49 H19         4.1826    4.6096    3.3917 H         1 <0>         0.1320
     50 H20         5.2923    8.4874    5.6259 H         1 <0>         0.1039
     51 H21         4.1482    8.9879    4.3347 H         1 <0>         0.0575
     52 H22         5.8814    8.7211    3.9451 H         1 <0>         0.0579
@<TRIPOS>BOND
     1    1    2 1
     2    1   33 1
     3    1   34 1
     4    1   35 1
     5    2    7 ar
     6    2    3 ar
     7    3    4 ar
     8    3   36 1
     9    4    5 ar
    10    4   37 1
    11    5    6 ar
    12    5   11 1
    13    6    7 ar
    14    6   38 1
    15    7    8 1
    16    8    9 2
    17    8   10 1
    18   11   12 1
    19   11   18 1
    20   11   13 1
    21   13   14 1
    22   13   39 1
    23   13   40 1
    24   14   15 2
    25   14   16 am
    26   16   17 1
    27   16   41 1
    28   17   24 1
    29   17   18 2
    30   18   19 1
    31   19   20 2
    32   19   21 1
    33   21   22 1
    34   21   42 1
    35   21   43 1
    36   22   23 1
    37   22   24 1
    38   22   25 1
    39   24   44 1
    40   24   45 1
    41   25   30 ar
    42   25   26 ar
    43   26   27 ar
    44   26   46 1
    45   27   28 ar
    46   27   47 1
    47   28   29 ar
    48   28   48 1
    49   29   30 ar
    50   29   31 1
    51   30   49 1
    52   31   32 1
    53   32   50 1
    54   32   51 1
    55   32   52 1
@<TRIPOS>MOLECULE
ZINC36632599
   52    56     0     0     0
SMALL
USER_CHARGES

@<TRIPOS>ATOM
      1 C1         -0.0196    1.3775    0.0156 C.ar      1 <0>        -0.0944
      2 C2          1.1602    2.0976   -0.0015 C.ar      1 <0>        -0.0945
      3 C3          2.3822    1.4438   -0.0221 C.ar      1 <0>        -0.0438
      4 C4          2.4203    0.0586   -0.0252 C.ar      1 <0>        -0.1418
      5 C5          1.2173   -0.6756   -0.0073 C.ar      1 <0>        -0.1417
      6 C6          0.0030   -0.0084    0.0128 C.ar      1 <0>        -0.0438
      7 C7          1.6126   -2.0999   -0.0166 C.2       1 <0>         0.5753
      8 O1          0.8521   -3.0467   -0.0066 O.2       1 <0>        -0.4587
      9 N1          2.9558   -2.1718   -0.0384 N.am      1 <0>        -0.5762
     10 C8          3.5060   -0.9443   -0.0448 C.2       1 <0>         0.5755
     11 O2          4.6956   -0.7008   -0.0639 O.2       1 <0>        -0.4591
     12 C9          3.7188   -3.4223   -0.0529 C.3       1 <0>         0.1109
     13 C10         3.9611   -3.8552   -1.5002 C.3       1 <0>        -0.1248
     14 C11         4.7581   -5.1612   -1.5153 C.3       1 <0>        -0.1345
     15 C12         4.9967   -5.5876   -2.9409 C.2       1 <0>         0.5136
     16 O3          4.5713   -4.9132   -3.8549 O.2       1 <0>        -0.5130
     17 N2          5.6829   -6.7182   -3.2002 N.am      1 <0>        -0.6711
     18 C13         5.8218   -7.1662   -4.5203 C.ar      1 <0>         0.1540
     19 C14         5.8251   -8.5273   -4.7947 C.ar      1 <0>        -0.1345
     20 C15         5.9621   -8.9718   -6.0964 C.ar      1 <0>        -0.0814
     21 C16         6.0952   -8.0608   -7.1293 C.ar      1 <0>         0.0148
     22 C17         6.0914   -6.6927   -6.8569 C.ar      1 <0>         0.0515
     23 C18         5.9504   -6.2487   -5.5547 C.ar      1 <0>        -0.1049
     24 O4          6.2338   -6.0176   -8.0411 O.3       1 <0>        -0.2922
     25 C19         6.8125   -6.9893   -8.9239 C.3       1 <0>         0.2539
     26 O5          6.2424   -8.2295   -8.4823 O.3       1 <0>        -0.2922
     27 C20         8.3403   -7.0056   -8.8089 C.3       1 <0>        -0.1589
     28 C21         8.8208   -7.3113  -10.2518 C.3       1 <0>        -0.1206
     29 C22         7.8043   -6.5346  -11.1266 C.3       1 <0>        -0.1231
     30 C23         6.4597   -6.6993  -10.3828 C.3       1 <0>        -0.1178
     31 H1         -0.9655    1.8984    0.0359 H         1 <0>         0.1440
     32 H2          1.1296    3.1772    0.0009 H         1 <0>         0.1440
     33 H3          3.3009    2.0115   -0.0362 H         1 <0>         0.1433
     34 H4         -0.9219   -0.5659    0.0265 H         1 <0>         0.1434
     35 H5          4.6760   -3.2697    0.4458 H         1 <0>         0.1001
     36 H6          3.1568   -4.1970    0.4688 H         1 <0>         0.1001
     37 H7          3.0040   -4.0079   -1.9989 H         1 <0>         0.0806
     38 H8          4.5232   -3.0806   -2.0219 H         1 <0>         0.0805
     39 H9          5.7152   -5.0086   -1.0166 H         1 <0>         0.1047
     40 H10         4.1960   -5.9358   -0.9936 H         1 <0>         0.1052
     41 H11         6.0806   -7.2218   -2.4728 H         1 <0>         0.4157
     42 H12         5.7209   -9.2398   -3.9898 H         1 <0>         0.1418
     43 H13         5.9648  -10.0309   -6.3074 H         1 <0>         0.1405
     44 H14         5.9438   -5.1898   -5.3422 H         1 <0>         0.1505
     45 H15         8.7093   -6.0339   -8.4808 H         1 <0>         0.0934
     46 H16         8.6637   -7.7896   -8.1241 H         1 <0>         0.0837
     47 H17         9.8318   -6.9357  -10.4095 H         1 <0>         0.0789
     48 H18         8.7690   -8.3805  -10.4574 H         1 <0>         0.0758
     49 H19         8.0799   -5.4818  -11.1878 H         1 <0>         0.0756
     50 H20         7.7452   -6.9729  -12.1229 H         1 <0>         0.0800
     51 H21         5.8973   -7.5321  -10.8051 H         1 <0>         0.0961
     52 H22         5.8780   -5.7801  -10.4522 H         1 <0>         0.0956
@<TRIPOS>BOND
     1    1    6 ar
     2    1    2 ar
     3    1   31 1
     4    2    3 ar
     5    2   32 1
     6    3    4 ar
     7    3   33 1
     8    4   10 1
     9    4    5 ar
    10    5    6 ar
    11    5    7 1
    12    6   34 1
    13    7    8 2
    14    7    9 am
    15    9   10 am
    16    9   12 1
    17   10   11 2
    18   12   13 1
    19   12   35 1
    20   12   36 1
    21   13   14 1
    22   13   37 1
    23   13   38 1
    24   14   15 1
    25   14   39 1
    26   14   40 1
    27   15   16 2
    28   15   17 am
    29   17   18 1
    30   17   41 1
    31   18   23 ar
    32   18   19 ar
    33   19   20 ar
    34   19   42 1
    35   20   21 ar
    36   20   43 1
    37   21   26 1
    38   21   22 ar
    39   22   23 ar
    40   22   24 1
    41   23   44 1
    42   24   25 1
    43   25   30 1
    44   25   26 1
    45   25   27 1
    46   27   28 1
    47   27   45 1
    48   27   46 1
    49   28   29 1
    50   28   47 1
    51   28   48 1
    52   29   30 1
    53   29   49 1
    54   29   50 1
    55   30   51 1
    56   30   52 1
@<TRIPOS>MOLECULE
ZINC11690106
   45    48     0     0     0
SMALL
USER_CHARGES

@<TRIPOS>ATOM
      1 C1         -0.0164    1.3567    0.0095 C.ar      1 <0>        -0.1125
      2 C2          1.1685    2.0906    0.0021 C.ar      1 <0>        -0.1082
      3 C3          2.3785    1.4679   -0.0132 C.ar      1 <0>        -0.1048
      4 C4          2.4378    0.0637   -0.0214 C.ar      1 <0>        -0.0407
      5 C5          1.2328   -0.6827   -0.0134 C.ar      1 <0>        -0.0503
      6 C6          0.0021   -0.0041    0.0020 C.ar      1 <0>        -0.1060
      7 C7          1.2920   -2.0865   -0.0210 C.ar      1 <0>        -0.0969
      8 C8          2.5022   -2.7094   -0.0359 C.ar      1 <0>        -0.1181
      9 C9          3.6867   -1.9757   -0.0433 C.ar      1 <0>        -0.0986
     10 C10         3.6681   -0.6146   -0.0367 C.ar      1 <0>        -0.0899
     11 C11         4.9603    0.1606   -0.0459 C.3       1 <0>        -0.0548
     12 C12         5.3473    0.5240    1.3890 C.3       1 <0>        -0.1091
     13 H1          5.3839   -0.3620    2.0229 H         1 <0>         0.1642
     14 C13         6.6626    1.2893    1.4308 C.2       1 <0>         0.5341
     15 O1          7.7182    0.8258    1.0562 O.2       1 <0>        -0.4538
     16 N1          6.5340    2.5155    1.9188 N.am      1 <0>        -0.6462
     17 C14         5.3485    3.0186    2.3328 C.2       1 <0>         0.3421
     18 N2          5.1165    4.2647    2.8484 N.2       1 <0>        -0.3663
     19 N3          3.9233    4.6047    3.2016 N.2       1 <0>        -0.3225
     20 C15         3.6941    5.8356    3.7110 C.2       1 <0>         0.1518
     21 C16         2.3982    6.2049    4.0946 C.ar      1 <0>        -0.0518
     22 C17         1.3246    5.2916    3.9569 C.ar      1 <0>        -0.0230
     23 C18         0.0685    5.6646    4.3343 C.ar      1 <0>        -0.1186
     24 C19        -0.1608    6.9342    4.8515 C.ar      1 <0>        -0.0382
     25 C20         0.8828    7.8407    4.9918 C.ar      1 <0>        -0.0030
     26 C21         2.1508    7.4925    4.6289 C.ar      1 <0>        -0.0261
     27 N4          0.6186    9.1884    5.5438 N.pl3     1 <0>        -0.0229
     28 O2         -0.6034    9.5259    5.9005 O.2       1 <0>        -0.1620
     29 O3          1.6055   10.0500    5.6781 O.3       1 <0>        -0.1635
     30 S1          4.2172    1.7971    2.0842 S.3       1 <0>         0.0270
     31 H2         -0.9634    1.8756    0.0259 H         1 <0>         0.1238
     32 H3          1.1258    3.1698    0.0084 H         1 <0>         0.1223
     33 H4          3.2883    2.0497   -0.0195 H         1 <0>         0.1320
     34 H5         -0.9241   -0.5595    0.0082 H         1 <0>         0.1277
     35 H6          0.3820   -2.6682   -0.0147 H         1 <0>         0.1289
     36 H7          2.5450   -3.7886   -0.0417 H         1 <0>         0.1266
     37 H8          4.6338   -2.4947   -0.0548 H         1 <0>         0.1271
     38 H9          5.7467   -0.4491   -0.4909 H         1 <0>         0.1099
     39 H10         4.8331    1.0722   -0.6299 H         1 <0>         0.0920
     40 H11         7.3236    3.0754    1.9818 H         1 <0>         0.4205
     41 H12         4.5099    6.5345    3.8223 H         1 <0>         0.1273
     42 H13         1.4998    4.3047    3.5547 H         1 <0>         0.1551
     43 H14        -0.7523    4.9704    4.2305 H         1 <0>         0.1542
     44 H15        -1.1598    7.2189    5.1468 H         1 <0>         0.1584
     45 H16         2.9610    8.1973    4.7436 H         1 <0>         0.1630
@<TRIPOS>BOND
     1    1    6 ar
     2    1    2 ar
     3    1   31 1
     4    2    3 ar
     5    2   32 1
     6    3    4 ar
     7    3   33 1
     8    4   10 ar
     9    4    5 ar
    10    5    6 ar
    11    5    7 ar
    12    6   34 1
    13    7    8 ar
    14    7   35 1
    15    8    9 ar
    16    8   36 1
    17    9   10 ar
    18    9   37 1
    19   10   11 1
    20   11   12 1
    21   11   38 1
    22   11   39 1
    23   12   13 1
    24   12   30 1
    25   12   14 1
    26   14   15 2
    27   14   16 am
    28   16   17 1
    29   16   40 1
    30   17   18 2
    31   17   30 1
    32   18   19 1
    33   19   20 2
    34   20   21 1
    35   20   41 1
    36   21   26 ar
    37   21   22 ar
    38   22   23 ar
    39   22   42 1
    40   23   24 ar
    41   23   43 1
    42   24   25 ar
    43   24   44 1
    44   25   26 ar
    45   25   27 1
    46   26   45 1
    47   27   28 2
    48   27   29 1
@<TRIPOS>MOLECULE
ZINC39030063
   50    52     0     0     0
SMALL
USER_CHARGES

@<TRIPOS>ATOM
      1 C1         -0.0957    1.4597   -0.5279 C.3       1 <0>        -0.1231
      2 C2         -0.0821   -0.0459   -0.4655 C.2       1 <0>         0.1832
      3 C3         -1.1941   -0.7562   -0.1165 C.2       1 <0>        -0.3328
      4 S1         -0.5977   -2.4344   -0.2138 S.3       1 <0>         0.2809
      5 C4          0.9855   -2.1124   -0.6805 C.2       1 <0>         0.3463
      6 N1          1.9672   -2.9797   -0.9234 N.2       1 <0>        -0.5941
      7 C5          3.1669   -2.5403   -1.2861 C.2       1 <0>         0.4999
      8 O1          3.3694   -1.3462   -1.3966 O.2       1 <0>        -0.5685
      9 C6          4.2774   -3.5214   -1.5608 C.3       1 <0>        -0.1238
     10 C7          5.5441   -2.7601   -1.9569 C.3       1 <0>        -0.0977
     11 C8          6.6715   -3.7562   -2.2358 C.3       1 <0>        -0.1317
     12 H1          6.8116   -4.4071   -1.3728 H         1 <0>         0.1240
     13 C9          7.9704   -3.0010   -2.5336 C.3       1 <0>        -0.0376
     14 H2          8.0949   -2.1952   -1.8103 H         1 <0>         0.1064
     15 C10         7.9184   -2.4219   -3.9249 C.ar      1 <0>        -0.1818
     16 C11         8.7697   -1.3722   -4.2346 C.ar      1 <0>        -0.0379
     17 C12         8.7628   -0.8152   -5.4969 C.ar      1 <0>        -0.2224
     18 C13         7.8999   -1.3067   -6.4666 C.ar      1 <0>         0.1619
     19 C14         7.0459   -2.3528   -6.1608 C.ar      1 <0>        -0.1679
     20 C15         7.0514   -2.9098   -4.8869 C.ar      1 <0>         0.1655
     21 O2          6.1816   -3.9226   -4.6218 O.3       1 <0>        -0.2942
     22 C16         6.3331   -4.5873   -3.4574 C.2       1 <0>         0.4954
     23 O3          6.2071   -5.7871   -3.3912 O.2       1 <0>        -0.4266
     24 O4          7.8930   -0.7627   -7.7119 O.3       1 <0>        -0.3115
     25 C17         8.8009    0.3137   -7.9547 C.3       1 <0>         0.0259
     26 C18         9.1541   -3.9648   -2.4297 C.3       1 <0>        -0.1509
     27 N2          1.0226   -0.7507   -0.7560 N.pl3     1 <0>        -0.6104
     28 H3          1.8399   -0.2964   -1.0137 H         1 <0>         0.4356
     29 C19        -2.4816   -0.2851    0.2311 C.2       1 <0>         0.4416
     30 O5         -3.3371   -1.0672    0.5929 O.2       1 <0>        -0.4541
     31 C20        -2.7917    1.1875    0.1523 C.3       1 <0>        -0.2057
     32 H4          0.8563    1.8157   -0.9215 H         1 <0>         0.0848
     33 H5         -0.9045    1.7890   -1.1802 H         1 <0>         0.1106
     34 H6         -0.2489    1.8635    0.4730 H         1 <0>         0.1106
     35 H7          4.4725   -4.1097   -0.6642 H         1 <0>         0.1065
     36 H8          3.9831   -4.1849   -2.3739 H         1 <0>         0.0968
     37 H9          5.3490   -2.1718   -2.8535 H         1 <0>         0.0794
     38 H10         5.8384   -2.0966   -1.1438 H         1 <0>         0.0913
     39 H11         9.4426   -0.9877   -3.4825 H         1 <0>         0.1355
     40 H12         9.4281    0.0029   -5.7301 H         1 <0>         0.1361
     41 H13         6.3739   -2.7371   -6.9138 H         1 <0>         0.1454
     42 H14         8.6932    0.6547   -8.9844 H         1 <0>         0.1042
     43 H15         8.5795    1.1362   -7.2746 H         1 <0>         0.0586
     44 H16         9.8226   -0.0286   -7.7904 H         1 <0>         0.0589
     45 H17         9.0293   -4.7726   -3.1508 H         1 <0>         0.0547
     46 H18        10.0791   -3.4284   -2.6414 H         1 <0>         0.0689
     47 H19         9.1973   -4.3801   -1.4228 H         1 <0>         0.0696
     48 H20        -3.0759    1.4450   -0.8680 H         1 <0>         0.1028
     49 H21        -3.6137    1.4224    0.8287 H         1 <0>         0.0948
     50 H22        -1.9100    1.7604    0.4394 H         1 <0>         0.0965
@<TRIPOS>BOND
     1    1    2 1
     2    1   32 1
     3    1   33 1
     4    1   34 1
     5    2   27 1
     6    2    3 2
     7    3    4 1
     8    3   29 1
     9    4    5 1
    10    5    6 2
    11    5   27 1
    12    6    7 1
    13    7    8 2
    14    7    9 1
    15    9   10 1
    16    9   35 1
    17    9   36 1
    18   10   11 1
    19   10   37 1
    20   10   38 1
    21   11   12 1
    22   11   22 1
    23   11   13 1
    24   13   14 1
    25   13   15 1
    26   13   26 1
    27   15   20 ar
    28   15   16 ar
    29   16   17 ar
    30   16   39 1
    31   17   18 ar
    32   17   40 1
    33   18   19 ar
    34   18   24 1
    35   19   20 ar
    36   19   41 1
    37   20   21 1
    38   21   22 1
    39   22   23 2
    40   24   25 1
    41   25   42 1
    42   25   43 1
    43   25   44 1
    44   26   45 1
    45   26   46 1
    46   26   47 1
    47   27   28 1
    48   29   30 2
    49   29   31 1
    50   31   48 1
    51   31   49 1
    52   31   50 1
@<TRIPOS>MOLECULE
ZINC07154138
   42    45     0     0     0
SMALL
USER_CHARGES
8-methyl-2-[[1-(o-tolyl)tetrazol-5-yl]sulfanylmethyl]-3H-quinazolin-4-one
@<TRIPOS>ATOM
      1 C1          3.4432   -0.8986    1.8919 C.3       1 <0>        -0.1179
      2 C2          4.1708   -0.0459    0.8847 C.ar      1 <0>        -0.0516
      3 C3          5.5346    0.1443    0.9963 C.ar      1 <0>        -0.1069
      4 C4          6.2018    0.9311    0.0759 C.ar      1 <0>        -0.0926
      5 C5          5.5077    1.5253   -0.9623 C.ar      1 <0>        -0.1053
      6 C6          4.1452    1.3345   -1.0821 C.ar      1 <0>        -0.0987
      7 C7          3.4723    0.5449   -0.1593 C.ar      1 <0>         0.1077
      8 N1          2.0889    0.3493   -0.2783 N.pl3     1 <0>        -0.3090
      9 C8          1.1374    1.2947   -0.4832 C.2       1 <0>         0.1919
     10 N2         -0.0207    0.6721   -0.5314 N.2       1 <0>        -0.3345
     11 N3          0.1410   -0.5917   -0.3714 N.2       1 <0>        -0.0269
     12 N4          1.3897   -0.8686   -0.2119 N.2       1 <0>        -0.0658
     13 S1          1.4025    3.0284   -0.6526 S.3       1 <0>         0.1539
     14 C9         -0.3032    3.5855   -0.8901 C.3       1 <0>        -0.0988
     15 C10        -0.3234    5.0825   -1.0618 C.2       1 <0>         0.4099
     16 N5         -1.5218    5.6931   -1.2535 N.am      1 <0>        -0.6492
     17 H1         -2.3585    5.1459   -1.2770 H         1 <0>         0.4289
     18 C11        -1.5937    7.0352   -1.4130 C.2       1 <0>         0.5553
     19 O1         -2.6606    7.5952   -1.5855 O.2       1 <0>        -0.5020
     20 C12        -0.3327    7.7904   -1.3692 C.ar      1 <0>        -0.1897
     21 C13        -0.2972    9.1750   -1.5220 C.ar      1 <0>        -0.0479
     22 C14         0.9124    9.8325   -1.4715 C.ar      1 <0>        -0.1265
     23 C15         2.0919    9.1273   -1.2711 C.ar      1 <0>        -0.0765
     24 C16         2.0784    7.7592   -1.1179 C.ar      1 <0>        -0.0696
     25 C17         0.8648    7.0701   -1.1648 C.ar      1 <0>         0.1507
     26 N6          0.8049    5.7232   -1.0138 N.2       1 <0>        -0.5079
     27 C18         3.3672    7.0090   -0.9002 C.3       1 <0>        -0.1081
     28 H2          3.3523   -1.9151    1.5093 H         1 <0>         0.0855
     29 H3          4.0015   -0.9113    2.8280 H         1 <0>         0.0765
     30 H4          2.4496   -0.4860    2.0670 H         1 <0>         0.0617
     31 H5          6.0793   -0.3187    1.8058 H         1 <0>         0.1388
     32 H6          7.2673    1.0817    0.1675 H         1 <0>         0.1366
     33 H7          6.0316    2.1393   -1.6798 H         1 <0>         0.1405
     34 H8          3.6036    1.7988   -1.8930 H         1 <0>         0.1372
     35 H9         -0.7196    3.1121   -1.7792 H         1 <0>         0.1384
     36 H10        -0.8994    3.3116   -0.0196 H         1 <0>         0.1381
     37 H11        -1.2111    9.7286   -1.6788 H         1 <0>         0.1398
     38 H12         0.9436   10.9056   -1.5892 H         1 <0>         0.1365
     39 H13         3.0314    9.6587   -1.2346 H         1 <0>         0.1368
     40 H14         3.7825    6.7131   -1.8636 H         1 <0>         0.0738
     41 H15         4.0780    7.6511   -0.3800 H         1 <0>         0.0676
     42 H16         3.1733    6.1203   -0.2997 H         1 <0>         0.0793
@<TRIPOS>BOND
     1    1    2 1
     2    1   28 1
     3    1   29 1
     4    1   30 1
     5    2    7 ar
     6    2    3 ar
     7    3    4 ar
     8    3   31 1
     9    4    5 ar
    10    4   32 1
    11    5    6 ar
    12    5   33 1
    13    6    7 ar
    14    6   34 1
    15    7    8 1
    16    8   12 1
    17    8    9 1
    18    9   10 2
    19    9   13 1
    20   10   11 1
    21   11   12 2
    22   13   14 1
    23   14   15 1
    24   14   35 1
    25   14   36 1
    26   15   26 2
    27   15   16 1
    28   16   17 1
    29   16   18 am
    30   18   19 2
    31   18   20 1
    32   20   25 ar
    33   20   21 ar
    34   21   22 ar
    35   21   37 1
    36   22   23 ar
    37   22   38 1
    38   23   24 ar
    39   23   39 1
    40   24   25 ar
    41   24   27 1
    42   25   26 1
    43   27   40 1
    44   27   41 1
    45   27   42 1
@<TRIPOS>MOLECULE
ZINC38681138
   43    46     0     0     0
SMALL
USER_CHARGES

@<TRIPOS>ATOM
      1 C1         -1.6026    2.1273    0.3855 C.ar      1 <0>        -0.1027
      2 C2         -0.8952    3.3134    0.4449 C.ar      1 <0>        -0.0517
      3 C3          0.4736    3.3123    0.2516 C.ar      1 <0>        -0.0473
      4 C4          1.1350    2.1250   -0.0006 C.ar      1 <0>        -0.0517
      5 C5          0.4278    0.9387   -0.0591 C.ar      1 <0>        -0.1032
      6 C6         -0.9412    0.9400    0.1328 C.ar      1 <0>        -0.0194
      7 C7         -1.7124   -0.3531    0.0680 C.3       1 <0>        -0.1090
      8 C8         -2.1663   -0.5969   -1.3482 C.2       1 <0>         0.5150
      9 O1         -1.8906    0.2009   -2.2192 O.2       1 <0>        -0.5093
     10 N1         -2.8785   -1.7014   -1.6469 N.am      1 <0>        -0.6710
     11 C9         -3.3815   -1.8815   -2.9417 C.ar      1 <0>         0.1177
     12 C10        -4.6193   -2.4998   -3.1020 C.ar      1 <0>        -0.1040
     13 C11        -5.1473   -2.6958   -4.3548 C.ar      1 <0>        -0.0840
     14 C12        -4.3875   -2.2494   -5.4365 C.ar      1 <0>         0.1203
     15 C13        -3.1547   -1.6309   -5.2844 C.ar      1 <0>        -0.1199
     16 C14        -2.6256   -1.4289   -4.0288 C.ar      1 <0>        -0.0594
     17 C15        -2.6947   -1.3161   -6.6742 C.3       1 <0>        -0.1088
     18 C16        -3.8129   -1.8349   -7.5690 C.2       1 <0>         0.5250
     19 O2         -3.8443   -1.7800   -8.7803 O.2       1 <0>        -0.5033
     20 N2         -4.7560   -2.3639   -6.7757 N.am      1 <0>        -0.5529
     21 C17        -6.0327   -3.0023   -7.1418 C.3       1 <0>         0.1150
     22 C18        -6.4037   -4.0058   -6.0437 C.3       1 <0>        -0.1338
     23 C19        -6.4652   -3.3432   -4.6639 C.3       1 <0>        -0.0742
     24 N3          1.2309    4.5825    0.3142 N.pl3     1 <0>         0.0321
     25 O3          0.6524    5.6210    0.5344 O.2       1 <0>        -0.1570
     26 O4          2.4280    4.5816    0.1452 O.3       1 <0>        -0.1567
     27 H1         -2.6713    2.1276    0.5410 H         1 <0>         0.1462
     28 H2         -1.4120    4.2411    0.6420 H         1 <0>         0.1550
     29 H3          2.2043    2.1242   -0.1524 H         1 <0>         0.1552
     30 H4          0.9444    0.0111   -0.2569 H         1 <0>         0.1466
     31 H5         -1.0725   -1.1743    0.3909 H         1 <0>         0.1178
     32 H6         -2.5818   -0.2908    0.7225 H         1 <0>         0.1178
     33 H7         -3.0427   -2.3717   -0.9652 H         1 <0>         0.4131
     34 H8         -5.1692   -2.8287   -2.2326 H         1 <0>         0.1334
     35 H9         -1.6694   -0.9464   -3.8898 H         1 <0>         0.1526
     36 H10        -2.5735   -0.2403   -6.8008 H         1 <0>         0.1258
     37 H11        -1.7607   -1.8338   -6.8927 H         1 <0>         0.1253
     38 H12        -6.8116   -2.2444   -7.2250 H         1 <0>         0.0783
     39 H13        -5.9233   -3.5230   -8.0932 H         1 <0>         0.0926
     40 H14        -7.3771   -4.4394   -6.2731 H         1 <0>         0.0916
     41 H15        -5.6584   -4.8009   -6.0228 H         1 <0>         0.0735
     42 H16        -6.6845   -4.0980   -3.9087 H         1 <0>         0.0864
     43 H17        -7.2506   -2.5874   -4.6591 H         1 <0>         0.0833
@<TRIPOS>BOND
     1    1    6 ar
     2    1    2 ar
     3    1   27 1
     4    2    3 ar
     5    2   28 1
     6    3    4 ar
     7    3   24 1
     8    4    5 ar
     9    4   29 1
    10    5    6 ar
    11    5   30 1
    12    6    7 1
    13    7    8 1
    14    7   31 1
    15    7   32 1
    16    8    9 2
    17    8   10 am
    18   10   11 1
    19   10   33 1
    20   11   16 ar
    21   11   12 ar
    22   12   13 ar
    23   12   34 1
    24   13   23 1
    25   13   14 ar
    26   14   20 1
    27   14   15 ar
    28   15   16 ar
    29   15   17 1
    30   16   35 1
    31   17   18 1
    32   17   36 1
    33   17   37 1
    34   18   19 2
    35   18   20 am
    36   20   21 1
    37   21   22 1
    38   21   38 1
    39   21   39 1
    40   22   23 1
    41   22   40 1
    42   22   41 1
    43   23   42 1
    44   23   43 1
    45   24   25 2
    46   24   26 1
@<TRIPOS>MOLECULE
ZINC55996081
   45    48     0     0     0
SMALL
USER_CHARGES

@<TRIPOS>ATOM
      1 C1         -0.0670    1.5181   -0.0207 C.3       1 <0>        -0.1142
      2 C2         -0.0389    0.0113   -0.0234 C.ar      1 <0>        -0.1064
      3 C3         -0.0235   -0.6763   -1.2231 C.ar      1 <0>        -0.0922
      4 C4          0.0023   -2.0571   -1.2290 C.ar      1 <0>        -0.1497
      5 C5          0.0132   -2.7550   -0.0284 C.ar      1 <0>         0.1531
      6 C6         -0.0019   -2.0615    1.1747 C.ar      1 <0>        -0.1494
      7 C7         -0.0228   -0.6806    1.1737 C.ar      1 <0>        -0.0934
      8 N1          0.0388   -4.1541   -0.0309 N.am      1 <0>        -0.5503
      9 C8          0.1586   -4.9823    1.1748 C.3       1 <0>         0.0918
     10 C9         -0.2896   -6.3979    0.7486 C.3       1 <0>        -0.1160
     11 C10         0.0059   -6.3785   -0.7691 C.3       1 <0>        -0.1472
     12 H1          0.9951   -6.7897   -0.9704 H         1 <0>         0.1460
     13 C11        -0.0488   -4.9123   -1.1374 C.2       1 <0>         0.5272
     14 O1         -0.1538   -4.4832   -2.2670 O.2       1 <0>        -0.4969
     15 C12        -1.0477   -7.1499   -1.5214 C.2       1 <0>         0.5358
     16 O2         -1.9603   -7.6752   -0.9195 O.2       1 <0>        -0.5015
     17 N2         -0.9758   -7.2560   -2.8631 N.am      1 <0>        -0.6620
     18 C13        -2.0103   -7.8728   -3.5715 C.ar      1 <0>         0.1782
     19 C14        -3.3253   -7.7309   -3.1430 C.ar      1 <0>        -0.1218
     20 C15        -4.3477   -8.3378   -3.8393 C.ar      1 <0>        -0.0415
     21 C16        -4.0618   -9.0962   -4.9764 C.ar      1 <0>        -0.0469
     22 C17        -2.7400   -9.2368   -5.4041 C.ar      1 <0>        -0.0588
     23 C18        -1.7229   -8.6225   -4.7066 C.ar      1 <0>        -0.1447
     24 C19        -5.1557   -9.7488   -5.7253 C.2       1 <0>         0.2178
     25 N3         -6.4357   -9.6952   -5.4389 N.2       1 <0>        -0.2790
     26 N4         -7.0935  -10.3810   -6.3063 N.2       1 <0>        -0.2870
     27 C20        -6.2670  -10.8951   -7.1733 C.2       1 <0>         0.1452
     28 O3         -5.0258  -10.5056   -6.8334 O.3       1 <0>        -0.2247
     29 H2          0.9537    1.9005   -0.0228 H         1 <0>         0.0703
     30 H3         -0.5899    1.8733   -0.9087 H         1 <0>         0.0666
     31 H4         -0.5852    1.8702    0.8712 H         1 <0>         0.0664
     32 H5         -0.0320   -0.1329   -2.1564 H         1 <0>         0.1273
     33 H6          0.0136   -2.5936   -2.1662 H         1 <0>         0.1546
     34 H7          0.0061   -2.6014    2.1100 H         1 <0>         0.1269
     35 H8         -0.0304   -0.1405    2.1090 H         1 <0>         0.1279
     36 H9          1.1929   -5.0014    1.5181 H         1 <0>         0.0889
     37 H10        -0.4934   -4.6009    1.9607 H         1 <0>         0.0949
     38 H11         0.3026   -7.1624    1.2516 H         1 <0>         0.1068
     39 H12        -1.3532   -6.5436    0.9371 H         1 <0>         0.1070
     40 H13        -0.2060   -6.9042   -3.3369 H         1 <0>         0.4202
     41 H14        -3.5456   -7.1445   -2.2632 H         1 <0>         0.1433
     42 H15        -5.3689   -8.2274   -3.5057 H         1 <0>         0.1452
     43 H16        -2.5156   -9.8226   -6.2832 H         1 <0>         0.1385
     44 H17        -0.7007   -8.7272   -5.0393 H         1 <0>         0.1388
     45 H18        -6.5318  -11.5178   -8.0151 H         1 <0>         0.2650
@<TRIPOS>BOND
     1    1    2 1
     2    1   29 1
     3    1   30 1
     4    1   31 1
     5    2    7 ar
     6    2    3 ar
     7    3    4 ar
     8    3   32 1
     9    4    5 ar
    10    4   33 1
    11    5    6 ar
    12    5    8 1
    13    6    7 ar
    14    6   34 1
    15    7   35 1
    16    8   13 am
    17    8    9 1
    18    9   10 1
    19    9   36 1
    20    9   37 1
    21   10   11 1
    22   10   38 1
    23   10   39 1
    24   11   12 1
    25   11   13 1
    26   11   15 1
    27   13   14 2
    28   15   16 2
    29   15   17 am
    30   17   18 1
    31   17   40 1
    32   18   23 ar
    33   18   19 ar
    34   19   20 ar
    35   19   41 1
    36   20   21 ar
    37   20   42 1
    38   21   22 ar
    39   21   24 1
    40   22   23 ar
    41   22   43 1
    42   23   44 1
    43   24   28 1
    44   24   25 2
    45   25   26 1
    46   26   27 2
    47   27   28 1
    48   27   45 1
@<TRIPOS>MOLECULE
ZINC41586040
   50    52     0     0     0
SMALL
USER_CHARGES

@<TRIPOS>ATOM
      1 C1         -0.0187    1.5258    0.0104 C.3       1 <0>        -0.1524
      2 C2          0.0021   -0.0041    0.0020 C.3       1 <0>         0.0796
      3 O1          0.6709   -0.4649   -1.1737 O.3       1 <0>        -0.3645
      4 C3          0.7758   -1.7975   -1.3346 C.2       1 <0>         0.6504
      5 O2          0.3120   -2.5487   -0.4996 O.2       1 <0>        -0.5707
      6 N1          1.3951   -2.2983   -2.4219 N.am      1 <0>        -0.5966
      7 C4          1.9687   -1.4070   -3.4415 C.3       1 <0>         0.1178
      8 C5          1.4490   -1.8416   -4.8160 C.3       1 <0>         0.0401
      9 N2          1.7280   -3.2704   -5.0121 N.3       1 <0>        -0.5330
     10 C6          1.0133   -4.0931   -4.0270 C.3       1 <0>         0.0408
     11 C7          1.5206   -3.7507   -2.6172 C.3       1 <0>         0.1342
     12 C8          1.4015   -3.6874   -6.3823 C.3       1 <0>         0.1015
     13 C9          1.9237   -5.0806   -6.6214 C.ar      1 <0>        -0.1338
     14 C10         3.2065   -5.2648   -7.1128 C.ar      1 <0>         0.2046
     15 C11         3.7015   -6.5464   -7.3377 C.ar      1 <0>        -0.1845
     16 C12         2.9232   -7.6384   -7.0752 C.ar      1 <0>         0.0094
     17 C13         1.6298   -7.4677   -6.5801 C.ar      1 <0>        -0.2761
     18 C14         1.1214   -6.1799   -6.3438 C.ar      1 <0>         0.1656
     19 O3         -0.1382   -6.2648   -5.8625 O.3       1 <0>        -0.2131
     20 C15        -0.5460   -7.5509   -5.7409 C.2       1 <0>        -0.0701
     21 C16        -1.7373   -7.9649   -5.2953 C.2       1 <0>        -0.0191
     22 C17        -2.7742   -6.9576   -4.8696 C.3       1 <0>        -0.1276
     23 C18        -2.0425   -9.4387   -5.2188 C.3       1 <0>        -0.1286
     24 C19         0.5627   -8.4125   -6.2047 C.2       1 <0>         0.4157
     25 O4          0.5924   -9.6286   -6.2526 O.2       1 <0>        -0.4207
     26 O5          3.9867   -4.1864   -7.3774 O.3       1 <0>        -0.4864
     27 H1          1.0039    1.9031    0.0027 H         1 <0>         0.0670
     28 H2         -0.5459    1.8868   -0.8726 H         1 <0>         0.0664
     29 H3         -0.5289    1.8773    0.9072 H         1 <0>         0.0827
     30 H4          0.5293   -0.3651    0.8851 H         1 <0>         0.0683
     31 H5         -1.0205   -0.3814    0.0098 H         1 <0>         0.0674
     32 H6          1.6639   -0.3795   -3.2429 H         1 <0>         0.0976
     33 H7          3.0561   -1.4796   -3.4215 H         1 <0>         0.0806
     34 H8          0.3738   -1.6703   -4.8691 H         1 <0>         0.0422
     35 H9          1.9486   -1.2633   -5.5933 H         1 <0>         0.0946
     36 H10        -0.0558   -3.8905   -4.0911 H         1 <0>         0.0445
     37 H11         1.1970   -5.1477   -4.2321 H         1 <0>         0.0880
     38 H12         2.5657   -4.0443   -2.5194 H         1 <0>         0.0805
     39 H13         0.9194   -4.2735   -1.8733 H         1 <0>         0.0994
     40 H14         0.3199   -3.6766   -6.5174 H         1 <0>         0.0496
     41 H15         1.8630   -2.9998   -7.0911 H         1 <0>         0.0994
     42 H16         4.7026   -6.6778   -7.7209 H         1 <0>         0.1450
     43 H17         3.3084   -8.6319   -7.2509 H         1 <0>         0.1407
     44 H18        -3.3922   -6.6883   -5.7261 H         1 <0>         0.0851
     45 H19        -3.4018   -7.3895   -4.0902 H         1 <0>         0.0803
     46 H20        -2.2785   -6.0664   -4.4847 H         1 <0>         0.0746
     47 H21        -1.7480   -9.8205   -4.2413 H         1 <0>         0.0878
     48 H22        -3.1113   -9.5964   -5.3636 H         1 <0>         0.0817
     49 H23        -1.4889   -9.9652   -5.9963 H         1 <0>         0.0890
     50 H24         4.5258   -3.8976   -6.6283 H         1 <0>         0.4048
@<TRIPOS>BOND
     1    1    2 1
     2    1   27 1
     3    1   28 1
     4    1   29 1
     5    2    3 1
     6    2   30 1
     7    2   31 1
     8    3    4 1
     9    4    5 2
    10    4    6 am
    11    6   11 1
    12    6    7 1
    13    7    8 1
    14    7   32 1
    15    7   33 1
    16    8    9 1
    17    8   34 1
    18    8   35 1
    19    9   10 1
    20    9   12 1
    21   10   11 1
    22   10   36 1
    23   10   37 1
    24   11   38 1
    25   11   39 1
    26   12   13 1
    27   12   40 1
    28   12   41 1
    29   13   18 ar
    30   13   14 ar
    31   14   15 ar
    32   14   26 1
    33   15   16 ar
    34   15   42 1
    35   16   17 ar
    36   16   43 1
    37   17   24 1
    38   17   18 ar
    39   18   19 1
    40   19   20 1
    41   20   21 2
    42   20   24 1
    43   21   22 1
    44   21   23 1
    45   22   44 1
    46   22   45 1
    47   22   46 1
    48   23   47 1
    49   23   48 1
    50   23   49 1
    51   24   25 2
    52   26   50 1
@<TRIPOS>MOLECULE
ZINC66469392
   38    41     0     0     0
SMALL
USER_CHARGES

@<TRIPOS>ATOM
      1 C1         -0.0167    1.3838    0.0097 C.ar      1 <0>        -0.1549
      2 C2          1.1697    2.0932    0.0021 C.ar      1 <0>        -0.0775
      3 C3          2.3788    1.4227   -0.0130 C.ar      1 <0>         0.0316
      4 C4          2.4031    0.0314   -0.0212 C.ar      1 <0>         0.2169
      5 C5          1.2132   -0.6811   -0.0137 C.ar      1 <0>        -0.1635
      6 C6          0.0021   -0.0041    0.0020 C.ar      1 <0>         0.1715
      7 N1         -1.2033   -0.7223    0.0097 N.pl3     1 <0>        -0.3283
      8 C7         -2.4555   -0.2236   -0.0746 C.2       1 <0>         0.2315
      9 N2         -3.2807   -1.2368   -0.0307 N.2       1 <0>        -0.3280
     10 N3         -2.6354   -2.3420    0.0756 N.2       1 <0>        -0.0312
     11 N4         -1.3661   -2.1159    0.1007 N.2       1 <0>        -0.0749
     12 N5          3.6256   -0.6474   -0.0375 N.pl3     1 <0>        -0.7269
     13 C8          3.6501   -2.1122   -0.0461 C.3       1 <0>         0.1751
     14 C9          5.0790   -2.5907   -0.0633 C.ar      1 <0>        -0.1271
     15 C10         5.6576   -2.9949   -1.2507 C.ar      1 <0>        -0.0517
     16 C11         6.9690   -3.4353   -1.2669 C.ar      1 <0>        -0.0662
     17 C12         7.7020   -3.4726   -0.0941 C.ar      1 <0>        -0.0537
     18 C13         7.1266   -3.0690    1.0960 C.ar      1 <0>        -0.1929
     19 C14         5.8152   -2.6198    1.1129 C.ar      1 <0>         0.1600
     20 O1          5.2413   -2.2066    2.2746 O.3       1 <0>        -0.3192
     21 C15         5.8943   -2.5869    3.4891 C.3       1 <0>         0.2192
     22 O2          7.2936   -2.3066    3.3635 O.3       1 <0>        -0.3794
     23 C16         7.9337   -3.1173    2.3687 C.3       1 <0>         0.1003
     24 Cl1         7.6952   -3.9423   -2.7599 Cl        1 <0>        -0.0571
     25 F1          3.5368    2.1184   -0.0204 F         1 <0>        -0.1335
     26 H1         -0.9596    1.9102    0.0260 H         1 <0>         0.1426
     27 H2          1.1522    3.1730    0.0078 H         1 <0>         0.1522
     28 H3          1.2293   -1.7609   -0.0204 H         1 <0>         0.1493
     29 H4         -2.7252    0.8185   -0.1621 H         1 <0>         0.2416
     30 H5          4.4574   -0.1484   -0.0431 H         1 <0>         0.4098
     31 H6          3.1514   -2.4892    0.8468 H         1 <0>         0.0816
     32 H7          3.1334   -2.4790   -0.9330 H         1 <0>         0.0782
     33 H8          5.0861   -2.9674   -2.1666 H         1 <0>         0.1458
     34 H9          8.7253   -3.8179   -0.1085 H         1 <0>         0.1435
     35 H10         5.4803   -2.0171    4.3210 H         1 <0>         0.1469
     36 H11         5.7490   -3.6529    3.6644 H         1 <0>         0.0683
     37 H12         8.0058   -4.1483    2.7150 H         1 <0>         0.0811
     38 H13         8.9332   -2.7252    2.1808 H         1 <0>         0.1191
@<TRIPOS>BOND
     1    1    6 ar
     2    1    2 ar
     3    1   26 1
     4    2    3 ar
     5    2   27 1
     6    3    4 ar
     7    3   25 1
     8    4    5 ar
     9    4   12 1
    10    5    6 ar
    11    5   28 1
    12    6    7 1
    13    7   11 1
    14    7    8 1
    15    8    9 2
    16    8   29 1
    17    9   10 1
    18   10   11 2
    19   12   13 1
    20   12   30 1
    21   13   14 1
    22   13   31 1
    23   13   32 1
    24   14   19 ar
    25   14   15 ar
    26   15   16 ar
    27   15   33 1
    28   16   17 ar
    29   16   24 1
    30   17   18 ar
    31   17   34 1
    32   18   23 1
    33   18   19 ar
    34   19   20 1
    35   20   21 1
    36   21   22 1
    37   21   35 1
    38   21   36 1
    39   22   23 1
    40   23   37 1
    41   23   38 1
@<TRIPOS>MOLECULE
ZINC02569434
   44    46     0     0     0
SMALL
USER_CHARGES
1-[5-chloro-1-(4-methoxyphenyl)-6-oxo-pyridazin-4-yl]piperidine-4-carboxamide
@<TRIPOS>ATOM
      1 C1          3.8816    0.0086  -10.3607 C.3       1 <0>         0.0239
      2 O1          4.0975   -0.7984   -9.2013 O.3       1 <0>        -0.3130
      3 C2          3.4197   -0.4538   -8.0746 C.ar      1 <0>         0.1402
      4 C3          3.5831   -1.1951   -6.9129 C.ar      1 <0>        -0.1421
      5 C4          2.8948   -0.8459   -5.7685 C.ar      1 <0>        -0.0578
      6 C5          2.0385    0.2477   -5.7798 C.ar      1 <0>         0.0938
      7 C6          1.8711    0.9858   -6.9446 C.ar      1 <0>        -0.0482
      8 C7          2.5645    0.6389   -8.0867 C.ar      1 <0>        -0.1959
      9 N1          1.3401    0.6025   -4.6194 N.am      1 <0>        -0.3543
     10 C8          1.3417    1.8846   -4.2043 C.2       1 <0>         0.5084
     11 O2          1.9496    2.7346   -4.8370 O.2       1 <0>        -0.4986
     12 C9          0.6419    2.2367   -3.0418 C.2       1 <0>        -0.0744
     13 C10        -0.0380    1.2542   -2.3438 C.2       1 <0>         0.1255
     14 C11        -0.0068   -0.0757   -2.8127 C.2       1 <0>         0.0568
     15 N2          0.6470   -0.3769   -3.9005 N.2       1 <0>        -0.1962
     16 N3         -0.7382    1.5729   -1.1917 N.pl3     1 <0>        -0.4996
     17 C12        -0.2202    0.8269   -0.0377 C.3       1 <0>         0.0593
     18 C13        -0.9163    1.3091    1.2370 C.3       1 <0>        -0.1069
     19 C14        -2.4259    1.0926    1.1017 C.3       1 <0>        -0.1118
     20 C15        -2.9318    1.8405   -0.1349 C.3       1 <0>        -0.0967
     21 C16        -2.1775    1.3430   -1.3700 C.3       1 <0>         0.0588
     22 C17        -3.1235    1.6194    2.3293 C.2       1 <0>         0.5219
     23 O3         -3.9449    2.5057    2.2266 O.2       1 <0>        -0.5377
     24 N4         -2.8347    1.1054    3.5412 N.am      1 <0>        -0.8564
     25 Cl1         0.6288    3.8812   -2.4858 Cl        1 <0>         0.0174
     26 H1          4.4809   -0.3744  -11.1867 H         1 <0>         0.1037
     27 H2          2.8266   -0.0213  -10.6328 H         1 <0>         0.0583
     28 H3          4.1727    1.0370  -10.1468 H         1 <0>         0.0589
     29 H4          4.2487   -2.0456   -6.9044 H         1 <0>         0.1422
     30 H5          3.0218   -1.4232   -4.8645 H         1 <0>         0.1378
     31 H6          1.2021    1.8336   -6.9554 H         1 <0>         0.1330
     32 H7          2.4378    1.2153   -8.9912 H         1 <0>         0.1389
     33 H8         -0.5315   -0.8484   -2.2705 H         1 <0>         0.1996
     34 H9         -0.4131   -0.2368   -0.1767 H         1 <0>         0.0508
     35 H10         0.8535    0.9929    0.0498 H         1 <0>         0.0877
     36 H11        -0.5431    0.7444    2.0913 H         1 <0>         0.0798
     37 H12        -0.7125    2.3697    1.3840 H         1 <0>         0.0842
     38 H13        -2.6330    0.0280    0.9937 H         1 <0>         0.0992
     39 H14        -2.7597    2.9095   -0.0095 H         1 <0>         0.0862
     40 H15        -3.9986    1.6554   -0.2610 H         1 <0>         0.0829
     41 H16        -2.5254    1.8836   -2.2503 H         1 <0>         0.0873
     42 H17        -2.3612    0.2768   -1.5026 H         1 <0>         0.0492
     43 H18        -2.1778    0.3965    3.6234 H         1 <0>         0.4011
     44 H19        -3.2838    1.4444    4.3314 H         1 <0>         0.4028
@<TRIPOS>BOND
     1    1    2 1
     2    1   26 1
     3    1   27 1
     4    1   28 1
     5    2    3 1
     6    3    8 ar
     7    3    4 ar
     8    4    5 ar
     9    4   29 1
    10    5    6 ar
    11    5   30 1
    12    6    7 ar
    13    6    9 1
    14    7    8 ar
    15    7   31 1
    16    8   32 1
    17    9   15 1
    18    9   10 am
    19   10   11 2
    20   10   12 1
    21   12   13 2
    22   12   25 1
    23   13   14 1
    24   13   16 1
    25   14   15 2
    26   14   33 1
    27   16   21 1
    28   16   17 1
    29   17   18 1
    30   17   34 1
    31   17   35 1
    32   18   19 1
    33   18   36 1
    34   18   37 1
    35   19   20 1
    36   19   22 1
    37   19   38 1
    38   20   21 1
    39   20   39 1
    40   20   40 1
    41   21   41 1
    42   21   42 1
    43   22   23 2
    44   22   24 am
    45   24   43 1
    46   24   44 1
@<TRIPOS>MOLECULE
ZINC29543388
   47    50     0     0     0
SMALL
USER_CHARGES
(4S)-2-[(6-hydroxy-1,3-benzodioxol-5-yl)methyl]-5,8-dimethoxy-3,4-dihydro-1H-isoquinolin-4-ol
@<TRIPOS>ATOM
      1 C1         -0.0354   -2.7019   -0.0157 C.3       1 <0>         0.0249
      2 O1          1.2295   -2.0372   -0.0239 O.3       1 <0>        -0.3139
      3 C2          1.2124   -0.6775   -0.0147 C.ar      1 <0>         0.0895
      4 C3          0.0021   -0.0041    0.0020 C.ar      1 <0>        -0.1622
      5 C4         -0.0167    1.3769    0.0096 C.ar      1 <0>        -0.1808
      6 C5          1.1757    2.0823    0.0020 C.ar      1 <0>         0.1190
      7 C6          2.3917    1.4070   -0.0124 C.ar      1 <0>        -0.0692
      8 C7          2.4110    0.0295   -0.0224 C.ar      1 <0>        -0.0577
      9 C8          3.7013   -0.7473   -0.0454 C.3       1 <0>         0.1019
     10 N1          4.8222    0.1070    0.3593 N.3       1 <0>        -0.5181
     11 C9          4.8394    1.3394   -0.4447 C.3       1 <0>         0.0228
     12 C10         3.6632    2.2162   -0.0139 C.3       1 <0>         0.1775
     13 H1          3.8347    2.6562    0.9796 H         1 <0>         0.0709
     14 O2          3.5271    3.3085   -0.9252 O.3       1 <0>        -0.5789
     15 C11         6.0986   -0.6117    0.2485 C.3       1 <0>         0.1123
     16 C12         6.1284   -1.7395    1.2477 C.ar      1 <0>        -0.1219
     17 C13         5.9583   -3.0439    0.8218 C.ar      1 <0>        -0.0501
     18 C14         5.9852   -4.0825    1.7375 C.ar      1 <0>        -0.0153
     19 C15         6.1839   -3.8118    3.0894 C.ar      1 <0>         0.0789
     20 C16         6.3541   -2.5046    3.5136 C.ar      1 <0>        -0.2034
     21 C17         6.3321   -1.4682    2.5921 C.ar      1 <0>         0.2006
     22 O3          6.5052   -0.1852    3.0079 O.3       1 <0>        -0.4849
     23 O4          6.1692   -4.9909    3.7772 O.3       1 <0>        -0.3111
     24 C18         6.3685   -6.0166    2.7866 C.3       1 <0>         0.2100
     25 O5          5.8461   -5.4321    1.5789 O.3       1 <0>        -0.3040
     26 O6          1.1572    3.4420    0.0083 O.3       1 <0>        -0.2914
     27 C19        -0.1248    4.0733    0.0227 C.3       1 <0>         0.0221
     28 H2          0.1224   -3.7905   -0.0245 H         1 <0>         0.1016
     29 H3         -0.6101   -2.4075   -0.9062 H         1 <0>         0.0549
     30 H4         -0.5922   -2.4194    0.8899 H         1 <0>         0.0550
     31 H5         -0.9251   -0.5578    0.0087 H         1 <0>         0.1321
     32 H6         -0.9584    1.9056    0.0169 H         1 <0>         0.1319
     33 H7          3.6303   -1.5968    0.6498 H         1 <0>         0.0972
     34 H8          3.8862   -1.1210   -1.0633 H         1 <0>         0.0506
     35 H9          5.7866    1.8731   -0.2774 H         1 <0>         0.0840
     36 H10         4.7462    1.0833   -1.5104 H         1 <0>         0.0481
     37 H11         4.3581    4.0157   -1.0641 H         1 <0>         0.4045
     38 H12         6.2028   -1.0194   -0.7678 H         1 <0>         0.0457
     39 H13         6.9284    0.0810    0.4525 H         1 <0>         0.0933
     40 H14         5.8038   -3.2530   -0.2264 H         1 <0>         0.1387
     41 H15         6.5087   -2.2925    4.5613 H         1 <0>         0.1394
     42 H16         6.6668    0.0303    4.0744 H         1 <0>         0.4329
     43 H17         7.4413   -6.2467    2.7078 H         1 <0>         0.0849
     44 H18         5.8198   -6.9231    3.0818 H         1 <0>         0.1330
     45 H19         0.0045    5.1657    0.0265 H         1 <0>         0.1005
     46 H20        -0.6747    3.7660    0.9245 H         1 <0>         0.0516
     47 H21        -0.6909    3.7741   -0.8717 H         1 <0>         0.0526
@<TRIPOS>BOND
     1    1    2 1
     2    1   28 1
     3    1   29 1
     4    1   30 1
     5    2    3 1
     6    3    8 ar
     7    3    4 ar
     8    4    5 ar
     9    4   31 1
    10    5    6 ar
    11    5   32 1
    12    6    7 ar
    13    6   26 1
    14    7   12 1
    15    7    8 ar
    16    8    9 1
    17    9   10 1
    18    9   33 1
    19    9   34 1
    20   10   11 1
    21   10   15 1
    22   11   12 1
    23   11   35 1
    24   11   36 1
    25   12   13 1
    26   12   14 1
    27   14   37 1
    28   15   16 1
    29   15   38 1
    30   15   39 1
    31   16   21 ar
    32   16   17 ar
    33   17   18 ar
    34   17   40 1
    35   18   25 1
    36   18   19 ar
    37   19   20 ar
    38   19   23 1
    39   20   21 ar
    40   20   41 1
    41   21   22 1
    42   22   42 1
    43   23   24 1
    44   24   25 1
    45   24   43 1
    46   24   44 1
    47   26   27 1
    48   27   45 1
    49   27   46 1
    50   27   47 1
@<TRIPOS>MOLECULE
ZINC41350906
   41    42     0     0     0
SMALL
USER_CHARGES

@<TRIPOS>ATOM
      1 C1         -0.0184    1.5028    0.0103 C.3       1 <0>        -0.0974
      2 C2          0.0021   -0.0041    0.0020 C.2       1 <0>         0.1065
      3 C3          0.0083   -0.7920   -1.0953 C.2       1 <0>        -0.1526
      4 C4          0.0283   -2.1347   -0.6628 C.2       1 <0>         0.1659
      5 N1          0.0337   -2.1353    0.6553 N.2       1 <0>        -0.2731
      6 N2          0.0233   -0.8042    1.0912 N.pl3     1 <0>        -0.3516
      7 C5          0.0312   -0.3567    2.4861 C.3       1 <0>         0.0978
      8 C6          0.0405   -3.3297   -1.5339 C.2       1 <0>         0.2493
      9 N3          0.0405   -3.3383   -2.8464 N.2       1 <0>        -0.2332
     10 N4          0.0529   -4.5489   -3.2774 N.2       1 <0>        -0.2880
     11 C7          0.0616   -5.3878   -2.2662 C.2       1 <0>         0.1564
     12 N5          0.0600   -4.6419   -1.1216 N.pl3     1 <0>        -0.4381
     13 C8          0.0728   -5.1364    0.2574 C.3       1 <0>         0.1181
     14 C9         -1.1638   -6.0042    0.4995 C.3       1 <0>        -0.1687
     15 C10         1.3344   -5.9706    0.4884 C.3       1 <0>        -0.1691
     16 S1          0.0788   -7.1468   -2.3676 S.3       1 <0>         0.0804
     17 C11         0.0821   -7.4837   -4.1500 C.3       1 <0>        -0.1200
     18 H1         -0.7647   -6.9802   -4.6165 H         1 <0>         0.1251
     19 C12         1.3844   -6.9666   -4.7643 C.3       1 <0>        -0.1452
     20 C13        -0.0273   -8.9689   -4.3807 C.2       1 <0>         0.5434
     21 O1          0.2597   -9.7433   -3.4925 O.2       1 <0>        -0.5255
     22 N6         -0.4439   -9.4366   -5.5741 N.am      1 <0>        -0.8434
     23 Cl1        -0.0063   -0.2489   -2.7441 Cl        1 <0>        -0.0098
     24 H2          1.0042    1.8801    0.0026 H         1 <0>         0.0905
     25 H3         -0.5455    1.8639   -0.8728 H         1 <0>         0.0948
     26 H4         -0.5286    1.8543    0.9071 H         1 <0>         0.0798
     27 H5         -0.9944   -0.2592    2.8422 H         1 <0>         0.0838
     28 H6          0.5607   -1.0864    3.0988 H         1 <0>         0.0967
     29 H7          0.5332    0.6083    2.5552 H         1 <0>         0.0962
     30 H8          0.0645   -4.2918    0.9464 H         1 <0>         0.1270
     31 H9         -1.1555   -6.8488   -0.1895 H         1 <0>         0.0748
     32 H10        -1.1543   -6.3721    1.5255 H         1 <0>         0.0865
     33 H11        -2.0626   -5.4099    0.3349 H         1 <0>         0.0653
     34 H12         2.2154   -5.3523    0.3159 H         1 <0>         0.0654
     35 H13         1.3439   -6.3385    1.5143 H         1 <0>         0.0862
     36 H14         1.3427   -6.8152   -0.2006 H         1 <0>         0.0762
     37 H15         1.3864   -7.1691   -5.8354 H         1 <0>         0.0733
     38 H16         1.4635   -5.8924   -4.5975 H         1 <0>         0.0888
     39 H17         2.2312   -7.4701   -4.2979 H         1 <0>         0.0722
     40 H18        -0.6734   -8.8173   -6.2844 H         1 <0>         0.4059
     41 H19        -0.5143  -10.3926   -5.7226 H         1 <0>         0.4094
@<TRIPOS>BOND
     1    1    2 1
     2    1   24 1
     3    1   25 1
     4    1   26 1
     5    2    6 1
     6    2    3 2
     7    3    4 1
     8    3   23 1
     9    4    5 2
    10    4    8 1
    11    5    6 1
    12    6    7 1
    13    7   27 1
    14    7   28 1
    15    7   29 1
    16    8   12 1
    17    8    9 2
    18    9   10 1
    19   10   11 2
    20   11   12 1
    21   11   16 1
    22   12   13 1
    23   13   14 1
    24   13   15 1
    25   13   30 1
    26   14   31 1
    27   14   32 1
    28   14   33 1
    29   15   34 1
    30   15   35 1
    31   15   36 1
    32   16   17 1
    33   17   18 1
    34   17   19 1
    35   17   20 1
    36   19   37 1
    37   19   38 1
    38   19   39 1
    39   20   21 2
    40   20   22 am
    41   22   40 1
    42   22   41 1
@<TRIPOS>MOLECULE
ZINC22981344
   35    36     0     0     0
SMALL
USER_CHARGES

@<TRIPOS>ATOM
      1 C1         -0.0157    1.3058    0.0092 C.2       1 <0>        -0.1561
      2 C2          0.0021   -0.0041    0.0020 C.2       1 <0>        -0.1840
      3 C3          1.3172   -0.7397   -0.0145 C.3       1 <0>         0.1620
      4 N1          1.3674   -1.6756    1.1115 N.am      1 <0>        -0.7327
      5 C4          2.4568   -2.4468    1.2987 C.2       1 <0>         0.6934
      6 O1          3.3974   -2.3658    0.5334 O.2       1 <0>        -0.5252
      7 N2          2.5029   -3.3078    2.3346 N.am      1 <0>        -0.6870
      8 C5          3.5923   -4.0790    2.5218 C.2       1 <0>         0.5021
      9 O2          4.5306   -3.9982    1.7584 O.2       1 <0>        -0.4492
     10 C6          3.6439   -5.0417    3.6801 C.3       1 <0>         0.0793
     11 N3          4.9224   -5.7568    3.6640 N.am      1 <0>        -0.5351
     12 C7          5.0330   -6.9229    2.9749 C.2       1 <0>         0.3946
     13 N4          6.1302   -7.6140    2.9125 N.2       1 <0>        -0.5069
     14 C8          7.2617   -7.2106    3.5431 C.ar      1 <0>         0.1667
     15 C9          7.2415   -6.0087    4.2848 C.ar      1 <0>        -0.1722
     16 C10         5.9842   -5.2473    4.3310 C.2       1 <0>         0.5609
     17 O3          5.9006   -4.2014    4.9481 O.2       1 <0>        -0.4942
     18 C11         8.3908   -5.5734    4.9406 C.ar      1 <0>        -0.0250
     19 C12         9.5451   -6.3238    4.8598 C.ar      1 <0>        -0.0459
     20 C13         9.5691   -7.5065    4.1312 C.ar      1 <0>        -0.0564
     21 C14         8.4428   -7.9540    3.4756 C.ar      1 <0>        -0.0202
     22 Cl1         8.4909   -9.4346    2.5704 Cl        1 <0>        -0.0234
     23 Cl2        10.9804   -5.7856    5.6747 Cl        1 <0>        -0.0410
     24 H1          0.9122    1.8585    0.0033 H         1 <0>         0.1020
     25 H2         -0.9582    1.8330    0.0166 H         1 <0>         0.1064
     26 H3         -0.9258   -0.5567    0.0079 H         1 <0>         0.1176
     27 H4          1.4134   -1.2911   -0.9498 H         1 <0>         0.0798
     28 H5          2.1349   -0.0241    0.0711 H         1 <0>         0.0749
     29 H6          0.6167   -1.7402    1.7223 H         1 <0>         0.4009
     30 H7          1.7522   -3.3724    2.9454 H         1 <0>         0.4128
     31 H8          3.5478   -4.4903    4.6154 H         1 <0>         0.1399
     32 H9          2.8262   -5.7573    3.5945 H         1 <0>         0.1397
     33 H10         4.1634   -7.2939    2.4528 H         1 <0>         0.2081
     34 H11         8.3781   -4.6546    5.5081 H         1 <0>         0.1564
     35 H12        10.4814   -8.0821    4.0782 H         1 <0>         0.1573
@<TRIPOS>BOND
     1    1    2 2
     2    1   24 1
     3    1   25 1
     4    2    3 1
     5    2   26 1
     6    3    4 1
     7    3   27 1
     8    3   28 1
     9    4    5 am
    10    4   29 1
    11    5    6 2
    12    5    7 am
    13    7    8 am
    14    7   30 1
    15    8    9 2
    16    8   10 1
    17   10   11 1
    18   10   31 1
    19   10   32 1
    20   11   16 am
    21   11   12 1
    22   12   13 2
    23   12   33 1
    24   13   14 1
    25   14   21 ar
    26   14   15 ar
    27   15   16 1
    28   15   18 ar
    29   16   17 2
    30   18   19 ar
    31   18   34 1
    32   19   20 ar
    33   19   23 1
    34   20   21 ar
    35   20   35 1
    36   21   22 1
@<TRIPOS>MOLECULE
ZINC39958936
   43    46     0     0     0
SMALL
USER_CHARGES

@<TRIPOS>ATOM
      1 C1         -0.0173    1.4248    0.0099 C.3       1 <0>         0.0219
      2 O1          0.0021   -0.0041    0.0020 O.3       1 <0>        -0.3088
      3 C2          0.6048   -0.6061   -1.0539 C.ar      1 <0>         0.1654
      4 C3          1.1723    0.1677   -2.0613 C.ar      1 <0>        -0.2146
      5 C4          1.7805   -0.4326   -3.1269 C.ar      1 <0>        -0.0153
      6 C5          1.8325   -1.8320   -3.2040 C.ar      1 <0>        -0.0902
      7 C6          1.2590   -2.6066   -2.1851 C.ar      1 <0>        -0.0413
      8 C7          0.6578   -1.9947   -1.1221 C.ar      1 <0>        -0.1656
      9 C8          2.4828   -2.4820   -4.3444 C.2       1 <0>         0.1820
     10 N1          3.0716   -1.9080   -5.3772 N.2       1 <0>        -0.2869
     11 N2          3.5864   -2.7444   -6.2022 N.2       1 <0>        -0.1839
     12 C9          3.7133   -3.9325   -5.7122 C.2       1 <0>         0.0239
     13 C10         2.6384   -3.9602   -4.6032 C.3       1 <0>        -0.1850
     14 H1          1.7103   -4.4578   -4.8849 H         1 <0>         0.1713
     15 C11         3.4487   -4.6828   -3.5092 C.3       1 <0>         0.2066
     16 H2          2.7864   -5.1824   -2.8023 H         1 <0>         0.1204
     17 N3          4.2255   -5.6716   -4.2933 N.am      1 <0>        -0.7084
     18 C12         4.3178   -5.2546   -5.5796 C.2       1 <0>         0.6107
     19 O2          4.8384   -5.8807   -6.4838 O.2       1 <0>        -0.4834
     20 C13         4.3630   -3.7205   -2.7955 C.ar      1 <0>        -0.0883
     21 C14         5.5623   -3.3501   -3.3750 C.ar      1 <0>        -0.1172
     22 C15         6.4044   -2.4677   -2.7243 C.ar      1 <0>        -0.1007
     23 C16         6.0470   -1.9522   -1.4889 C.ar      1 <0>         0.0887
     24 C17         4.8396   -2.3246   -0.9058 C.ar      1 <0>         0.1102
     25 C18         3.9979   -3.2058   -1.5656 C.ar      1 <0>        -0.1707
     26 O3          4.4843   -1.8213    0.3066 O.3       1 <0>        -0.3024
     27 C19         3.2309   -2.2479    0.8441 C.3       1 <0>         0.0135
     28 O4          6.8745   -1.0844   -0.8473 O.3       1 <0>        -0.4848
     29 H3          1.0053    1.8021    0.0021 H         1 <0>         0.0614
     30 H4         -0.5445    1.7859   -0.8732 H         1 <0>         0.0613
     31 H5         -0.5275    1.7763    0.9067 H         1 <0>         0.1064
     32 H6          1.1316    1.2453   -2.0008 H         1 <0>         0.1391
     33 H7          2.2201    0.1691   -3.9086 H         1 <0>         0.1408
     34 H8          1.2959   -3.6846   -2.2390 H         1 <0>         0.1353
     35 H9          0.2191   -2.5901   -0.3351 H         1 <0>         0.1432
     36 H10         4.6032   -6.4931   -3.9420 H         1 <0>         0.4334
     37 H11         5.8421   -3.7512   -4.3379 H         1 <0>         0.1223
     38 H12         7.3411   -2.1805   -3.1788 H         1 <0>         0.1397
     39 H13         3.0586   -3.4935   -1.1170 H         1 <0>         0.1385
     40 H14         3.0702   -1.7732    1.8120 H         1 <0>         0.1018
     41 H15         2.4283   -1.9650    0.1629 H         1 <0>         0.0643
     42 H16         3.2381   -3.3309    0.9672 H         1 <0>         0.0558
     43 H17         6.7122   -0.1553   -1.0609 H         1 <0>         0.3897
@<TRIPOS>BOND
     1    1    2 1
     2    1   29 1
     3    1   30 1
     4    1   31 1
     5    2    3 1
     6    3    8 ar
     7    3    4 ar
     8    4    5 ar
     9    4   32 1
    10    5    6 ar
    11    5   33 1
    12    6    7 ar
    13    6    9 1
    14    7    8 ar
    15    7   34 1
    16    8   35 1
    17    9   13 1
    18    9   10 2
    19   10   11 1
    20   11   12 2
    21   12   18 1
    22   12   13 1
    23   13   14 1
    24   13   15 1
    25   15   16 1
    26   15   17 1
    27   15   20 1
    28   17   18 am
    29   17   36 1
    30   18   19 2
    31   20   25 ar
    32   20   21 ar
    33   21   22 ar
    34   21   37 1
    35   22   23 ar
    36   22   38 1
    37   23   24 ar
    38   23   28 1
    39   24   25 ar
    40   24   26 1
    41   25   39 1
    42   26   27 1
    43   27   40 1
    44   27   41 1
    45   27   42 1
    46   28   43 1
@<TRIPOS>MOLECULE
ZINC01044980
   32    33     0     0     0
SMALL
USER_CHARGES
4-amino-N-[4-chloro-2-(trifluoromethyl)phenyl]-benzenesulfonamide
@<TRIPOS>ATOM
      1 C1          2.1552    3.2978    3.5430 C.ar      1 <0>        -0.2161
      2 C2          2.0870    2.4549    2.4511 C.ar      1 <0>         0.0356
      3 C3          1.4947    2.8866    1.2785 C.ar      1 <0>        -0.7355
      4 C4          0.9740    4.1648    1.1929 C.ar      1 <0>         0.0311
      5 C5          1.0339    5.0108    2.2828 C.ar      1 <0>        -0.2159
      6 C6          1.6281    4.5804    3.4623 C.ar      1 <0>         0.2751
      7 N1          1.6950    5.4353    4.5649 N.pl3     1 <0>        -0.8632
      8 S1          1.4098    1.8080   -0.1122 S.o2      1 <0>         2.6912
      9 O1          2.4576    0.8608    0.0438 O.2       1 <0>        -0.9424
     10 O2          1.2959    2.6355   -1.2617 O.2       1 <0>        -0.9467
     11 N2         -0.0111    0.9658    0.0074 N.pl3     1 <0>        -1.0605
     12 C7         -1.2300    1.6491    0.0115 C.ar      1 <0>         0.2209
     13 C8         -1.3903    2.7911   -0.7632 C.ar      1 <0>        -0.1654
     14 C9         -2.5959    3.4643   -0.7571 C.ar      1 <0>        -0.0427
     15 C10        -3.6441    3.0024    0.0198 C.ar      1 <0>        -0.0571
     16 C11        -3.4871    1.8656    0.7927 C.ar      1 <0>        -0.0383
     17 C12        -2.2853    1.1846    0.7857 C.ar      1 <0>        -0.1976
     18 C13        -2.1174   -0.0576    1.6222 C.3       1 <0>         0.5129
     19 F1         -3.3080   -0.3230    2.3071 F         1 <0>        -0.1705
     20 F2         -1.8054   -1.1399    0.7925 F         1 <0>        -0.1738
     21 F3         -1.0828    0.1370    2.5436 F         1 <0>        -0.1696
     22 Cl1        -5.1583    3.8513    0.0250 Cl        1 <0>        -0.0483
     23 H1          2.6182    2.9601    4.4585 H         1 <0>         0.1327
     24 H2          2.4963    1.4574    2.5133 H         1 <0>         0.1404
     25 H3          0.5164    4.5004    0.2740 H         1 <0>         0.1391
     26 H4          0.6231    6.0075    2.2168 H         1 <0>         0.1326
     27 H5          2.1099    5.1335    5.3881 H         1 <0>         0.4047
     28 H6          1.3266    6.3308    4.5074 H         1 <0>         0.4046
     29 H7          0.0026   -0.0020    0.0705 H         1 <0>         0.4310
     30 H8         -0.5729    3.1518   -1.3699 H         1 <0>         0.1829
     31 H9         -2.7212    4.3520   -1.3594 H         1 <0>         0.1539
     32 H10        -4.3065    1.5075    1.3982 H         1 <0>         0.1550
@<TRIPOS>BOND
     1    1    6 ar
     2    1    2 ar
     3    1   23 1
     4    2    3 ar
     5    2   24 1
     6    3    4 ar
     7    3    8 1
     8    4    5 ar
     9    4   25 1
    10    5    6 ar
    11    5   26 1
    12    6    7 1
    13    7   27 1
    14    7   28 1
    15    8    9 2
    16    8   10 2
    17    8   11 1
    18   11   12 1
    19   11   29 1
    20   12   17 ar
    21   12   13 ar
    22   13   14 ar
    23   13   30 1
    24   14   15 ar
    25   14   31 1
    26   15   16 ar
    27   15   22 1
    28   16   17 ar
    29   16   32 1
    30   17   18 1
    31   18   19 1
    32   18   20 1
    33   18   21 1
@<TRIPOS>MOLECULE
ZINC35348756
   35    36     0     0     0
SMALL
USER_CHARGES

@<TRIPOS>ATOM
      1 C1         -0.0168    1.3849    0.0097 C.ar      1 <0>        -0.2146
      2 C2          1.1707    2.0901    0.0021 C.ar      1 <0>         0.0254
      3 C3          2.3774    1.4150   -0.0135 C.ar      1 <0>        -0.7338
      4 C4          2.3998    0.0323   -0.0211 C.ar      1 <0>         0.0315
      5 C5          1.2161   -0.6790   -0.0137 C.ar      1 <0>        -0.2178
      6 C6          0.0021   -0.0041    0.0020 C.ar      1 <0>         0.2709
      7 N1         -1.1970   -0.7204    0.0101 N.pl3     1 <0>        -0.7361
      8 C7         -1.1752   -2.1852    0.0020 C.3       1 <0>         0.1238
      9 C8         -2.6099   -2.7167    0.0134 C.3       1 <0>        -0.0968
     10 C9         -2.5875   -4.2235    0.0051 C.ar      1 <0>        -0.0719
     11 C10        -2.6876   -4.9095   -1.1909 C.ar      1 <0>        -0.0876
     12 C11        -2.6672   -6.2913   -1.1993 C.ar      1 <0>        -0.1017
     13 C12        -2.5460   -6.9890   -0.0104 C.ar      1 <0>        -0.0243
     14 C13        -2.4452   -6.3032    1.1864 C.ar      1 <0>        -0.0999
     15 C14        -2.4610   -4.9198    1.1937 C.ar      1 <0>        -0.0217
     16 Cl1        -2.3285   -4.0580    2.6949 Cl        1 <0>        -0.0499
     17 Cl2        -2.5208   -8.7248   -0.0212 Cl        1 <0>        -0.0519
     18 S1          3.8900    2.3186   -0.0243 S.o2      1 <0>         2.7046
     19 O1          4.8717    1.4606   -0.5894 O.2       1 <0>        -0.9687
     20 O2          3.5945    3.5988   -0.5657 O.2       1 <0>        -0.9671
     21 N2          4.3264    2.5618    1.5546 N.pl3     1 <0>        -1.2505
     22 H1         -0.9589    1.9127    0.0260 H         1 <0>         0.1313
     23 H2          1.1567    3.1700    0.0080 H         1 <0>         0.1414
     24 H3          3.3440   -0.4918   -0.0333 H         1 <0>         0.1406
     25 H4          1.2342   -1.7588   -0.0200 H         1 <0>         0.1306
     26 H5         -2.0441   -0.2480    0.0210 H         1 <0>         0.4051
     27 H6         -0.6649   -2.5361   -0.8950 H         1 <0>         0.0693
     28 H7         -0.6472   -2.5456    0.8849 H         1 <0>         0.0703
     29 H8         -3.1202   -2.3658    0.9104 H         1 <0>         0.0902
     30 H9         -3.1379   -2.3563   -0.8695 H         1 <0>         0.0889
     31 H10        -2.7823   -4.3654   -2.1190 H         1 <0>         0.1442
     32 H11        -2.7462   -6.8268   -2.1339 H         1 <0>         0.1434
     33 H12        -2.3506   -6.8473    2.1145 H         1 <0>         0.1466
     34 H13         5.2640    2.6299    1.7937 H         1 <0>         0.4201
     35 H14         3.6443    2.6361    2.2403 H         1 <0>         0.4162
@<TRIPOS>BOND
     1    1    6 ar
     2    1    2 ar
     3    1   22 1
     4    2    3 ar
     5    2   23 1
     6    3    4 ar
     7    3   18 1
     8    4    5 ar
     9    4   24 1
    10    5    6 ar
    11    5   25 1
    12    6    7 1
    13    7    8 1
    14    7   26 1
    15    8    9 1
    16    8   27 1
    17    8   28 1
    18    9   10 1
    19    9   29 1
    20    9   30 1
    21   10   15 ar
    22   10   11 ar
    23   11   12 ar
    24   11   31 1
    25   12   13 ar
    26   12   32 1
    27   13   14 ar
    28   13   17 1
    29   14   15 ar
    30   14   33 1
    31   15   16 1
    32   18   19 2
    33   18   20 2
    34   18   21 1
    35   21   34 1
    36   21   35 1
@<TRIPOS>MOLECULE
ZINC37288288
   37    37     0     0     0
SMALL
USER_CHARGES

@<TRIPOS>ATOM
      1 C1         -0.0187    1.5258    0.0104 C.3       1 <0>        -0.1539
      2 C2          0.0021   -0.0041    0.0020 C.3       1 <0>        -0.1324
      3 C3         -1.4333   -0.5336    0.0129 C.3       1 <0>         0.1416
      4 H1         -1.9701   -0.1109    0.8621 H         1 <0>         0.0899
      5 C4         -1.4133   -2.0590    0.1302 C.3       1 <0>        -0.1661
      6 N1         -2.1054   -0.1483   -1.2305 N.am      1 <0>        -0.7211
      7 C5         -3.4483   -0.0395   -1.2649 C.2       1 <0>         0.5165
      8 O1         -4.1004   -0.2606   -0.2665 O.2       1 <0>        -0.5139
      9 C6         -4.1397    0.3569   -2.5439 C.3       1 <0>         0.0697
     10 H2         -3.7242    1.2977   -2.9050 H         1 <0>         0.0869
     11 C7         -3.9271   -0.7322   -3.5973 C.3       1 <0>        -0.1843
     12 O2         -5.5386    0.5165   -2.2995 O.3       1 <0>        -0.2854
     13 C8         -6.2008    1.4215   -3.0699 C.ar      1 <0>         0.0392
     14 C9         -6.2961    2.7497   -2.6604 C.ar      1 <0>         0.2287
     15 C10        -6.9719    3.6685   -3.4496 C.ar      1 <0>        -0.1699
     16 C11        -7.5494    3.2648   -4.6404 C.ar      1 <0>         0.0190
     17 C12        -7.4544    1.9460   -5.0463 C.ar      1 <0>        -0.1330
     18 C13        -6.7769    1.0254   -4.2658 C.ar      1 <0>        -0.0488
     19 Br1        -6.6431   -0.7748   -4.8290 Br        1 <0>        -0.0155
     20 Cl1        -8.3954    4.4159   -5.6268 Cl        1 <0>        -0.0505
     21 N2         -5.7116    3.1559   -1.4553 N.pl3     1 <0>        -0.8593
     22 H3          1.0039    1.9031    0.0027 H         1 <0>         0.0582
     23 H4         -0.5459    1.8868   -0.8726 H         1 <0>         0.0533
     24 H5         -0.5289    1.8773    0.9072 H         1 <0>         0.0560
     25 H6          0.5123   -0.3556   -0.8948 H         1 <0>         0.0691
     26 H7          0.5293   -0.3651    0.8851 H         1 <0>         0.0811
     27 H8         -2.4359   -2.4363    0.1380 H         1 <0>         0.0621
     28 H9         -0.8764   -2.4817   -0.7190 H         1 <0>         0.0578
     29 H10        -0.9132   -2.3457    1.0553 H         1 <0>         0.0675
     30 H11        -1.5839    0.0285   -2.0291 H         1 <0>         0.3998
     31 H12        -4.3425   -1.6730   -3.2362 H         1 <0>         0.0763
     32 H13        -4.4271   -0.4455   -4.5224 H         1 <0>         0.0852
     33 H14        -2.8600   -0.8540   -3.7837 H         1 <0>         0.0708
     34 H15        -7.0477    4.6988   -3.1346 H         1 <0>         0.1445
     35 H16        -7.9067    1.6346   -5.9762 H         1 <0>         0.1469
     36 H17        -5.2395    2.5123   -0.9041 H         1 <0>         0.4086
     37 H18        -5.7786    4.0810   -1.1713 H         1 <0>         0.4053
@<TRIPOS>BOND
     1    1    2 1
     2    1   22 1
     3    1   23 1
     4    1   24 1
     5    2    3 1
     6    2   25 1
     7    2   26 1
     8    3    4 1
     9    3    5 1
    10    3    6 1
    11    5   27 1
    12    5   28 1
    13    5   29 1
    14    6    7 am
    15    6   30 1
    16    7    8 2
    17    7    9 1
    18    9   10 1
    19    9   11 1
    20    9   12 1
    21   11   31 1
    22   11   32 1
    23   11   33 1
    24   12   13 1
    25   13   18 ar
    26   13   14 ar
    27   14   15 ar
    28   14   21 1
    29   15   16 ar
    30   15   34 1
    31   16   17 ar
    32   16   20 1
    33   17   18 ar
    34   17   35 1
    35   18   19 1
    36   21   36 1
    37   21   37 1
@<TRIPOS>MOLECULE
ZINC40322733
   38    39     0     0     0
SMALL
USER_CHARGES

@<TRIPOS>ATOM
      1 C1         -0.0184    1.5028    0.0103 C.3       1 <0>        -0.1197
      2 C2          0.0021   -0.0041    0.0020 C.ar      1 <0>        -0.0536
      3 C3          0.0058   -0.6873   -1.1984 C.ar      1 <0>        -0.1452
      4 C4          0.0251   -2.0761   -1.2051 C.ar      1 <0>         0.2039
      5 C5          0.0406   -2.7733   -0.0035 C.ar      1 <0>        -0.1043
      6 C6          0.0368   -2.0840    1.1929 C.ar      1 <0>        -0.6208
      7 C7          0.0229   -0.7010    1.1960 C.ar      1 <0>        -0.0828
      8 S1          0.0559   -2.9672    2.7175 S.o2      1 <0>         2.6926
      9 O1         -0.5022   -2.1008    3.6958 O.2       1 <0>        -0.9517
     10 O2         -0.4787   -4.2557    2.4471 O.2       1 <0>        -0.9559
     11 N1          1.6430   -3.1912    3.1337 N.pl3     1 <0>        -1.1114
     12 C8          2.4872   -2.0365    3.4505 C.3       1 <0>         0.1887
     13 H1          1.8616   -1.2121    3.7928 H         1 <0>         0.1048
     14 C9          3.2556   -1.6079    2.1988 C.3       1 <0>        -0.1727
     15 C10         3.4635   -2.4106    4.5358 C.ar      1 <0>        -0.0836
     16 C11         4.0721   -3.6517    4.5199 C.ar      1 <0>        -0.0984
     17 C12         4.9676   -3.9954    5.5150 C.ar      1 <0>        -0.1067
     18 C13         5.2548   -3.0970    6.5272 C.ar      1 <0>        -0.0339
     19 C14         4.6454   -1.8550    6.5425 C.ar      1 <0>        -0.1056
     20 C15         3.7544   -1.5103    5.5438 C.ar      1 <0>        -0.0953
     21 Cl1         6.3791   -3.5281    7.7777 Cl        1 <0>        -0.0669
     22 N2          0.0284   -2.7702   -2.4172 N.pl3     1 <0>        -0.8761
     23 H2          1.0042    1.8801    0.0026 H         1 <0>         0.0758
     24 H3         -0.5455    1.8639   -0.8728 H         1 <0>         0.0695
     25 H4         -0.5286    1.8543    0.9071 H         1 <0>         0.0729
     26 H5         -0.0067   -0.1423   -2.1307 H         1 <0>         0.1281
     27 H6          0.0553   -3.8532   -0.0052 H         1 <0>         0.1369
     28 H7          0.0244   -0.1642    2.1332 H         1 <0>         0.1367
     29 H8          2.0137   -4.0869    3.1679 H         1 <0>         0.4187
     30 H9          3.8811   -2.4323    1.8564 H         1 <0>         0.0668
     31 H10         2.5494   -1.3373    1.4138 H         1 <0>         0.0700
     32 H11         3.8837   -0.7487    2.4344 H         1 <0>         0.0740
     33 H12         3.8475   -4.3530    3.7299 H         1 <0>         0.1317
     34 H13         5.4427   -4.9652    5.5027 H         1 <0>         0.1359
     35 H14         4.8690   -1.1534    7.3326 H         1 <0>         0.1370
     36 H15         3.2822   -0.5390    5.5530 H         1 <0>         0.1373
     37 H16         0.0172   -2.2823   -3.2555 H         1 <0>         0.4012
     38 H17         0.0419   -3.7401   -2.4206 H         1 <0>         0.4019
@<TRIPOS>BOND
     1    1    2 1
     2    1   23 1
     3    1   24 1
     4    1   25 1
     5    2    7 ar
     6    2    3 ar
     7    3    4 ar
     8    3   26 1
     9    4    5 ar
    10    4   22 1
    11    5    6 ar
    12    5   27 1
    13    6    7 ar
    14    6    8 1
    15    7   28 1
    16    8    9 2
    17    8   10 2
    18    8   11 1
    19   11   12 1
    20   11   29 1
    21   12   13 1
    22   12   14 1
    23   12   15 1
    24   14   30 1
    25   14   31 1
    26   14   32 1
    27   15   20 ar
    28   15   16 ar
    29   16   17 ar
    30   16   33 1
    31   17   18 ar
    32   17   34 1
    33   18   19 ar
    34   18   21 1
    35   19   20 ar
    36   19   35 1
    37   20   36 1
    38   22   37 1
    39   22   38 1
@<TRIPOS>MOLECULE
ZINC52094885
   36    38     0     0     0
SMALL
USER_CHARGES

@<TRIPOS>ATOM
      1 C1         -0.0184    1.5028    0.0103 C.3       1 <0>        -0.1168
      2 C2          0.0021   -0.0041    0.0020 C.ar      1 <0>        -0.0872
      3 C3          0.0057   -0.6887   -1.1989 C.ar      1 <0>        -0.1203
      4 C4          0.0245   -2.0709   -1.2065 C.ar      1 <0>        -0.0993
      5 C5          0.0400   -2.7685   -0.0132 C.ar      1 <0>        -0.0837
      6 C6          0.0373   -2.0839    1.1877 C.ar      1 <0>        -0.1103
      7 C7          0.0229   -0.7016    1.1953 C.ar      1 <0>        -0.1202
      8 C8          0.0595   -4.2753   -0.0215 C.3       1 <0>        -0.1072
      9 C9          1.5084   -4.7666   -0.0322 C.3       1 <0>         0.1509
     10 H1          2.0464   -4.3296    0.8090 H         1 <0>         0.1221
     11 C10         1.5303   -6.2690    0.0834 C.ar      1 <0>        -0.0786
     12 C11         1.6103   -7.0455   -1.0564 C.ar      1 <0>        -0.0921
     13 C12         1.6304   -8.4274   -0.9501 C.ar      1 <0>         0.1125
     14 C13         1.5697   -9.0295    0.3087 C.ar      1 <0>         0.0955
     15 C14         1.4895   -8.2428    1.4472 C.ar      1 <0>        -0.0700
     16 C15         1.4758   -6.8654    1.3319 C.ar      1 <0>        -0.0781
     17 Br1         1.3748   -5.7914    2.8851 Br        1 <0>        -0.0273
     18 N1          1.6078  -10.4059    0.0988 N.am      1 <0>        -0.6386
     19 H2          1.5808  -11.0864    0.7895 H         1 <0>         0.4394
     20 C16         1.6880  -10.6310   -1.2262 C.2       1 <0>         0.6867
     21 O1          1.7381  -11.7289   -1.7486 O.2       1 <0>        -0.5450
     22 N2          1.7035   -9.4573   -1.8856 N.am      1 <0>        -0.6394
     23 H3          1.7562   -9.3474   -2.8479 H         1 <0>         0.4394
     24 O2          2.1356   -4.3737   -1.2546 O.3       1 <0>        -0.5418
     25 H4          1.0042    1.8801    0.0026 H         1 <0>         0.0706
     26 H5         -0.5455    1.8639   -0.8728 H         1 <0>         0.0659
     27 H6         -0.5286    1.8543    0.9071 H         1 <0>         0.0658
     28 H7         -0.0064   -0.1436   -2.1312 H         1 <0>         0.1205
     29 H8          0.0266   -2.6057   -2.1448 H         1 <0>         0.1192
     30 H9          0.0491   -2.6289    2.1200 H         1 <0>         0.1204
     31 H10         0.0245   -0.1667    2.1335 H         1 <0>         0.1207
     32 H11        -0.4447   -4.6501    0.8693 H         1 <0>         0.0879
     33 H12        -0.4546   -4.6404   -0.9106 H         1 <0>         0.0790
     34 H13         1.6567   -6.5768   -2.0283 H         1 <0>         0.1424
     35 H14         1.4424   -8.7049    2.4222 H         1 <0>         0.1461
     36 H15         1.7086   -4.7271   -2.0470 H         1 <0>         0.3711
@<TRIPOS>BOND
     1    1    2 1
     2    1   25 1
     3    1   26 1
     4    1   27 1
     5    2    7 ar
     6    2    3 ar
     7    3    4 ar
     8    3   28 1
     9    4    5 ar
    10    4   29 1
    11    5    6 ar
    12    5    8 1
    13    6    7 ar
    14    6   30 1
    15    7   31 1
    16    8    9 1
    17    8   32 1
    18    8   33 1
    19    9   10 1
    20    9   11 1
    21    9   24 1
    22   11   16 ar
    23   11   12 ar
    24   12   13 ar
    25   12   34 1
    26   13   22 1
    27   13   14 ar
    28   14   15 ar
    29   14   18 1
    30   15   16 ar
    31   15   35 1
    32   16   17 1
    33   18   19 1
    34   18   20 am
    35   20   21 2
    36   20   22 am
    37   22   23 1
    38   24   36 1
@<TRIPOS>MOLECULE
ZINC66906340
   48    51     0     0     0
SMALL
USER_CHARGES

@<TRIPOS>ATOM
      1 C1          3.8869   -4.8474   -0.9756 C.ar      1 <0>        -0.1110
      2 C2          3.7944   -3.8845   -1.9635 C.ar      1 <0>        -0.1255
      3 C3          3.7682   -2.5494   -1.6183 C.ar      1 <0>        -0.1156
      4 C4          3.8366   -2.1634   -0.2856 C.ar      1 <0>        -0.1106
      5 C5          3.9339   -3.1218    0.6977 C.ar      1 <0>        -0.0529
      6 C6          3.9554   -4.4661    0.3482 C.ar      1 <0>        -0.1248
      7 C7          4.0280   -2.7758    2.1607 C.3       1 <0>        -0.0867
      8 C8          3.5648   -1.3409    2.4043 C.3       1 <0>        -0.1215
      9 C9          4.3117   -0.4196    1.4328 C.3       1 <0>        -0.0942
     10 C10         3.7962   -0.6890    0.0205 C.3       1 <0>         0.1815
     11 C11         4.6706    0.0597   -0.9872 C.3       1 <0>         0.0324
     12 N1          4.7330    1.4809   -0.6206 N.3       1 <0>        -0.6786
     13 C12         5.5269    2.2415   -1.5948 C.3       1 <0>         0.1333
     14 C13         5.5683    3.6915   -1.1864 C.2       1 <0>        -0.2249
     15 C14         4.8051    4.6833   -1.6951 C.2       1 <0>         0.0691
     16 N2          5.1419    5.8314   -1.0690 N.pl3     1 <0>        -0.4715
     17 H1          4.7535    6.7048   -1.2339 H         1 <0>         0.4429
     18 N3          6.1492    5.5419   -0.1396 N.2       1 <0>        -0.2820
     19 C15         6.4054    4.2524   -0.2023 C.2       1 <0>         0.1379
     20 C16         7.4031    3.5196    0.6164 C.ar      1 <0>        -0.0328
     21 C17         7.1497    2.2103    1.0198 C.ar      1 <0>        -0.0719
     22 C18         8.0800    1.5326    1.7809 C.ar      1 <0>        -0.1596
     23 C19         9.2645    2.1525    2.1443 C.ar      1 <0>         0.1059
     24 C20         9.5206    3.4542    1.7453 C.ar      1 <0>        -0.1615
     25 C21         8.5984    4.1370    0.9788 C.ar      1 <0>        -0.0639
     26 F1         10.1724    1.4857    2.8903 F         1 <0>        -0.1399
     27 O1          2.4498   -0.2222   -0.0867 O.3       1 <0>        -0.5479
     28 H2          3.9010   -5.8946   -1.2393 H         1 <0>         0.1229
     29 H3          3.7431   -4.1768   -3.0020 H         1 <0>         0.1222
     30 H4          3.6944   -1.7979   -2.3904 H         1 <0>         0.1196
     31 H5          4.0268   -5.2188    1.1194 H         1 <0>         0.1224
     32 H6          3.3995   -3.4583    2.7327 H         1 <0>         0.0751
     33 H7          5.0622   -2.8801    2.4888 H         1 <0>         0.0782
     34 H8          2.4916   -1.2669    2.2287 H         1 <0>         0.0728
     35 H9          3.7900   -1.0518    3.4309 H         1 <0>         0.0692
     36 H10         4.1271    0.6213    1.6986 H         1 <0>         0.0859
     37 H11         5.3808   -0.6267    1.4790 H         1 <0>         0.0769
     38 H12         5.6757   -0.3619   -0.9799 H         1 <0>         0.0851
     39 H13         4.2421   -0.0397   -1.9845 H         1 <0>         0.0379
     40 H14         3.8073    1.8707   -0.5253 H         1 <0>         0.3513
     41 H15         6.5413    1.8439   -1.6266 H         1 <0>         0.0823
     42 H16         5.0716    2.1548   -2.5814 H         1 <0>         0.0398
     43 H17         4.0572    4.5768   -2.4669 H         1 <0>         0.1771
     44 H18         6.2262    1.7266    0.7375 H         1 <0>         0.1772
     45 H19         7.8843    0.5177    2.0940 H         1 <0>         0.1364
     46 H20        10.4452    3.9337    2.0307 H         1 <0>         0.1366
     47 H21         8.8007    5.1503    0.6645 H         1 <0>         0.1333
     48 H22         2.0597   -0.3445   -0.9630 H         1 <0>         0.3723
@<TRIPOS>BOND
     1    1    6 ar
     2    1    2 ar
     3    1   28 1
     4    2    3 ar
     5    2   29 1
     6    3    4 ar
     7    3   30 1
     8    4   10 1
     9    4    5 ar
    10    5    6 ar
    11    5    7 1
    12    6   31 1
    13    7    8 1
    14    7   32 1
    15    7   33 1
    16    8    9 1
    17    8   34 1
    18    8   35 1
    19    9   10 1
    20    9   36 1
    21    9   37 1
    22   10   11 1
    23   10   27 1
    24   11   12 1
    25   11   38 1
    26   11   39 1
    27   12   13 1
    28   12   40 1
    29   13   14 1
    30   13   41 1
    31   13   42 1
    32   14   19 1
    33   14   15 2
    34   15   16 1
    35   15   43 1
    36   16   17 1
    37   16   18 1
    38   18   19 2
    39   19   20 1
    40   20   25 ar
    41   20   21 ar
    42   21   22 ar
    43   21   44 1
    44   22   23 ar
    45   22   45 1
    46   23   24 ar
    47   23   26 1
    48   24   25 ar
    49   24   46 1
    50   25   47 1
    51   27   48 1
@<TRIPOS>MOLECULE
ZINC14342310
   45    47     0     0     0
SMALL
USER_CHARGES
2-[(4-fluorophenyl)methylcarbamoylamino]-N-indan-5-yl-acetamide
@<TRIPOS>ATOM
      1 C1         -4.4520   -7.5904   -1.9609 C.ar      1 <0>        -0.0686
      2 C2         -3.9404   -8.8713   -2.0466 C.ar      1 <0>        -0.1559
      3 C3         -3.7317   -9.6114   -0.8951 C.ar      1 <0>         0.1089
      4 C4         -4.0310   -9.0651    0.3414 C.ar      1 <0>        -0.1559
      5 C5         -4.5376   -7.7820    0.4250 C.ar      1 <0>        -0.0686
      6 C6         -4.7455   -7.0441   -0.7253 C.ar      1 <0>        -0.1239
      7 C7         -5.2985   -5.6452   -0.6329 C.3       1 <0>         0.1823
      8 N1         -4.1939   -4.6904   -0.5132 N.am      1 <0>        -0.7406
      9 C8         -4.4512   -3.3710   -0.4159 C.2       1 <0>         0.7096
     10 O1         -5.6000   -2.9732   -0.4274 O.2       1 <0>        -0.5884
     11 N2         -3.4349   -2.4926   -0.3058 N.am      1 <0>        -0.7366
     12 C9         -3.7146   -1.0584   -0.2000 C.3       1 <0>         0.1228
     13 C10        -2.4169   -0.3004   -0.0890 C.2       1 <0>         0.5104
     14 O2         -1.3621   -0.8992   -0.0974 O.2       1 <0>        -0.5154
     15 N3         -2.4282    1.0429    0.0196 N.am      1 <0>        -0.6668
     16 C11        -1.2242    1.7557    0.0116 C.ar      1 <0>         0.1422
     17 C12        -0.1512    1.3024   -0.7448 C.ar      1 <0>        -0.1177
     18 C13         1.0320    2.0120   -0.7532 C.ar      1 <0>        -0.0882
     19 C14         1.1570    3.1721   -0.0059 C.ar      1 <0>        -0.1084
     20 C15         0.0922    3.6231    0.7524 C.ar      1 <0>        -0.0789
     21 C16        -1.0962    2.9143    0.7640 C.ar      1 <0>        -0.1302
     22 C17         0.4788    4.8992    1.4693 C.3       1 <0>        -0.0826
     23 C18         1.7324    5.4136    0.7305 C.3       1 <0>        -0.1211
     24 C19         2.3313    4.1149    0.1501 C.3       1 <0>        -0.0829
     25 F1         -3.2360  -10.8654   -0.9781 F         1 <0>        -0.1367
     26 H1         -4.6187   -7.0145   -2.8591 H         1 <0>         0.1361
     27 H2         -3.7072   -9.2965   -3.0117 H         1 <0>         0.1388
     28 H3         -3.8683   -9.6413    1.2402 H         1 <0>         0.1388
     29 H4         -4.7708   -7.3555    1.3894 H         1 <0>         0.1361
     30 H5         -5.9432   -5.5665    0.2425 H         1 <0>         0.0794
     31 H6         -5.8756   -5.4226   -1.5303 H         1 <0>         0.0794
     32 H7         -3.2773   -5.0078   -0.5040 H         1 <0>         0.3999
     33 H8         -2.5184   -2.8099   -0.2966 H         1 <0>         0.4089
     34 H9         -4.3218   -0.8710    0.6856 H         1 <0>         0.1031
     35 H10        -4.2542   -0.7270   -1.0873 H         1 <0>         0.1046
     36 H11        -3.2711    1.5156    0.1034 H         1 <0>         0.4153
     37 H12        -0.2443    0.3986   -1.3288 H         1 <0>         0.1355
     38 H13         1.8648    1.6614   -1.3448 H         1 <0>         0.1248
     39 H14        -1.9280    3.2669    1.3559 H         1 <0>         0.1248
     40 H15        -0.3269    5.6302    1.4012 H         1 <0>         0.0763
     41 H16         0.7138    4.6903    2.5130 H         1 <0>         0.0818
     42 H17         1.4564    6.1032   -0.0671 H         1 <0>         0.0734
     43 H18         2.4272    5.8831    1.4270 H         1 <0>         0.0780
     44 H19         3.0641    3.6954    0.8393 H         1 <0>         0.0804
     45 H20         2.7907    4.3103   -0.8188 H         1 <0>         0.0756
@<TRIPOS>BOND
     1    1    6 ar
     2    1    2 ar
     3    1   26 1
     4    2    3 ar
     5    2   27 1
     6    3    4 ar
     7    3   25 1
     8    4    5 ar
     9    4   28 1
    10    5    6 ar
    11    5   29 1
    12    6    7 1
    13    7    8 1
    14    7   30 1
    15    7   31 1
    16    8    9 am
    17    8   32 1
    18    9   10 2
    19    9   11 am
    20   11   12 1
    21   11   33 1
    22   12   13 1
    23   12   34 1
    24   12   35 1
    25   13   14 2
    26   13   15 am
    27   15   16 1
    28   15   36 1
    29   16   21 ar
    30   16   17 ar
    31   17   18 ar
    32   17   37 1
    33   18   19 ar
    34   18   38 1
    35   19   24 1
    36   19   20 ar
    37   20   21 ar
    38   20   22 1
    39   21   39 1
    40   22   23 1
    41   22   40 1
    42   22   41 1
    43   23   24 1
    44   23   42 1
    45   23   43 1
    46   24   44 1
    47   24   45 1
@<TRIPOS>MOLECULE
ZINC36959373
   35    36     0     0     0
SMALL
USER_CHARGES

@<TRIPOS>ATOM
      1 C1         -0.0184    1.5028    0.0103 C.3       1 <0>        -0.1209
      2 C2          0.0021   -0.0041    0.0020 C.ar      1 <0>        -0.0591
      3 C3          0.0057   -0.6882   -1.2000 C.ar      1 <0>        -0.0726
      4 C4          0.0240   -2.0707   -1.2121 C.ar      1 <0>        -0.6282
      5 C5          0.0391   -2.7732   -0.0230 C.ar      1 <0>        -0.1011
      6 C6          0.0360   -2.0893    1.1859 C.ar      1 <0>         0.2009
      7 C7          0.0228   -0.7000    1.1944 C.ar      1 <0>        -0.0992
      8 C8          0.0251    0.0464    2.5036 C.3       1 <0>        -0.1188
      9 N1          0.0513   -2.7965    2.3902 N.pl3     1 <0>        -0.7442
     10 C9          0.0706   -4.2614    2.3793 C.3       1 <0>         0.2028
     11 C10         0.0844   -4.7742    3.7963 C.2       1 <0>        -0.0154
     12 C11        -0.9994   -5.0613    4.5393 C.2       1 <0>        -0.1766
     13 C12        -0.5286   -5.5082    5.7954 C.2       1 <0>        -0.1561
     14 C13         0.8160   -5.4673    5.7447 C.2       1 <0>        -0.0218
     15 O1          1.1814   -5.0275    4.5295 O.3       1 <0>        -0.1548
     16 Br1         1.9910   -5.9538    7.1443 Br        1 <0>         0.0590
     17 S1          0.0274   -2.9373   -2.7463 S.o2      1 <0>         2.7008
     18 O2         -0.5050   -4.2285   -2.4845 O.2       1 <0>        -0.9635
     19 O3         -0.5403   -2.0602   -3.7094 O.2       1 <0>        -0.9596
     20 N2          1.6101   -3.1571   -3.1810 N.pl3     1 <0>        -1.2480
     21 H1          1.0042    1.8801    0.0026 H         1 <0>         0.0761
     22 H2         -0.5455    1.8639   -0.8728 H         1 <0>         0.0736
     23 H3         -0.5286    1.8543    0.9071 H         1 <0>         0.0723
     24 H4         -0.0061   -0.1414   -2.1312 H         1 <0>         0.1403
     25 H5          0.0530   -3.8531   -0.0331 H         1 <0>         0.1401
     26 H6         -1.0019    0.2123    2.8290 H         1 <0>         0.0763
     27 H7          0.5541   -0.5398    3.2551 H         1 <0>         0.0638
     28 H8          0.5247    1.0064    2.3736 H         1 <0>         0.0779
     29 H9          0.0491   -2.3178    3.2339 H         1 <0>         0.4055
     30 H10        -0.8170   -4.6327    1.8672 H         1 <0>         0.1014
     31 H11         0.9628   -4.6091    1.8584 H         1 <0>         0.0838
     32 H12        -2.0314   -4.9680    4.2349 H         1 <0>         0.1623
     33 H13        -1.1319   -5.8215    6.6346 H         1 <0>         0.1641
     34 H14         1.8658   -3.9318   -3.7057 H         1 <0>         0.4216
     35 H15         2.2814   -2.5112   -2.9109 H         1 <0>         0.4175
@<TRIPOS>BOND
     1    1    2 1
     2    1   21 1
     3    1   22 1
     4    1   23 1
     5    2    7 ar
     6    2    3 ar
     7    3    4 ar
     8    3   24 1
     9    4    5 ar
    10    4   17 1
    11    5    6 ar
    12    5   25 1
    13    6    7 ar
    14    6    9 1
    15    7    8 1
    16    8   26 1
    17    8   27 1
    18    8   28 1
    19    9   10 1
    20    9   29 1
    21   10   11 1
    22   10   30 1
    23   10   31 1
    24   11   15 1
    25   11   12 2
    26   12   13 1
    27   12   32 1
    28   13   14 2
    29   13   33 1
    30   14   15 1
    31   14   16 1
    32   17   18 2
    33   17   19 2
    34   17   20 1
    35   20   34 1
    36   20   35 1
@<TRIPOS>MOLECULE
ZINC47953269
   31    32     0     0     0
SMALL
USER_CHARGES

@<TRIPOS>ATOM
      1 C1         -0.0163    1.3513    0.0095 C.2       1 <0>        -0.1871
      2 C2          1.1833    2.0380    0.0017 C.2       1 <0>         0.0043
      3 C3          2.3426    1.3358   -0.0131 C.2       1 <0>        -0.7698
      4 S1          1.7535   -0.3495   -0.0166 S.3       1 <0>         0.1833
      5 C4          0.0021   -0.0041    0.0020 C.2       1 <0>        -0.1009
      6 C5         -1.1555   -0.9689    0.0083 C.3       1 <0>        -0.0578
      7 C6         -1.5616   -1.2877   -1.4320 C.3       1 <0>         0.1232
      8 N1         -2.6869   -2.2257   -1.4258 N.am      1 <0>        -0.7270
      9 C7         -3.2161   -2.6509   -2.5902 C.2       1 <0>         0.6087
     10 O1         -2.7591   -2.2556   -3.6467 O.2       1 <0>        -0.5146
     11 C8         -4.3412   -3.5886   -2.5840 C.2       1 <0>        -0.2507
     12 C9         -5.0197   -4.1468   -3.6573 C.2       1 <0>        -0.0560
     13 C10        -6.0445   -5.0031   -3.3357 C.2       1 <0>        -0.1682
     14 C11        -6.3190   -5.2408   -2.0273 C.2       1 <0>        -0.1635
     15 S2         -5.1901   -4.3158   -1.1953 S.3       1 <0>         0.2500
     16 Cl1        -7.5500   -6.2706   -1.3657 Cl        1 <0>         0.0275
     17 S3          4.0007    1.9316   -0.0263 S.o2      1 <0>         2.7387
     18 O2          4.7986    0.8998   -0.5901 O.2       1 <0>        -0.9542
     19 O3          3.9565    3.2437   -0.5701 O.2       1 <0>        -0.9536
     20 N2          4.4769    2.0892    1.5520 N.pl3     1 <0>        -1.2483
     21 H1         -0.9542    1.8866    0.0258 H         1 <0>         0.1481
     22 H2          1.1967    3.1179    0.0070 H         1 <0>         0.1524
     23 H3         -0.8598   -1.8879    0.5143 H         1 <0>         0.0967
     24 H4         -1.9993   -0.5207    0.5329 H         1 <0>         0.1045
     25 H5         -1.8573   -0.3687   -1.9380 H         1 <0>         0.0817
     26 H6         -0.7178   -1.7360   -1.9566 H         1 <0>         0.0801
     27 H7         -3.0512   -2.5407   -0.5838 H         1 <0>         0.4016
     28 H8         -4.7590   -3.9222   -4.6810 H         1 <0>         0.1597
     29 H9         -6.6237   -5.4802   -4.1124 H         1 <0>         0.1501
     30 H10         3.8636    1.8627    2.2685 H         1 <0>         0.4176
     31 H11         5.3691    2.4080    1.7598 H         1 <0>         0.4235
@<TRIPOS>BOND
     1    1    5 2
     2    1    2 1
     3    1   21 1
     4    2    3 2
     5    2   22 1
     6    3    4 1
     7    3   17 1
     8    4    5 1
     9    5    6 1
    10    6    7 1
    11    6   23 1
    12    6   24 1
    13    7    8 1
    14    7   25 1
    15    7   26 1
    16    8    9 am
    17    8   27 1
    18    9   10 2
    19    9   11 1
    20   11   15 1
    21   11   12 2
    22   12   13 1
    23   12   28 1
    24   13   14 2
    25   13   29 1
    26   14   15 1
    27   14   16 1
    28   17   18 2
    29   17   19 2
    30   17   20 1
    31   20   30 1
    32   20   31 1
@<TRIPOS>MOLECULE
ZINC56604197
   49    51     0     0     0
SMALL
USER_CHARGES

@<TRIPOS>ATOM
      1 C1          0.1519    1.3727    0.6441 C.ar      1 <0>        -0.0986
      2 C2          1.1696    2.0910    0.0435 C.ar      1 <0>        -0.1222
      3 C3          2.2113    1.4314   -0.5808 C.ar      1 <0>        -0.1133
      4 C4          2.2380    0.0441   -0.6060 C.ar      1 <0>        -0.1386
      5 C5          1.2112   -0.6801    0.0001 C.ar      1 <0>         0.1951
      6 C6          0.1703   -0.0096    0.6238 C.ar      1 <0>        -0.1143
      7 N1          1.2315   -2.0817   -0.0220 N.am      1 <0>        -0.6785
      8 C7          0.0805   -2.7742    0.0883 C.2       1 <0>         0.7257
      9 O1         -0.9837   -2.1861    0.1037 O.2       1 <0>        -0.5651
     10 N2          0.1091   -4.1184    0.1815 N.am      1 <0>        -0.6250
     11 C8          1.3240   -4.9466    0.2878 C.3       1 <0>         0.0912
     12 C9          0.8540   -6.2540    0.9731 C.3       1 <0>        -0.1310
     13 C10        -0.5504   -6.4485    0.3429 C.3       1 <0>        -0.1319
     14 C11        -1.0664   -5.0012    0.2004 C.3       1 <0>         0.1638
     15 H1         -1.7061   -4.7487    1.0461 H         1 <0>         0.0778
     16 C12        -1.8470   -4.8564   -1.1075 C.3       1 <0>        -0.1042
     17 C13        -3.0417   -5.8322   -1.1207 C.3       1 <0>        -0.1180
     18 C14        -3.1259   -6.3098   -2.5917 C.3       1 <0>        -0.1244
     19 C15        -1.6360   -6.4351   -2.9962 C.3       1 <0>        -0.1249
     20 C16        -0.9532   -5.2397   -2.3000 C.3       1 <0>        -0.1176
     21 S1          3.5644   -0.8000   -1.4015 S.3       1 <0>        -0.0450
     22 C17         4.6238    0.5347   -2.0234 C.3       1 <0>        -0.1499
     23 C18         5.8126   -0.0578   -2.7353 C.2       1 <0>         0.5370
     24 O2          5.9332   -1.2619   -2.8152 O.2       1 <0>        -0.5207
     25 N3          6.7416    0.7504   -3.2831 N.am      1 <0>        -0.8478
     26 H2         -0.6575    1.8931    1.1344 H         1 <0>         0.1291
     27 H3          1.1500    3.1707    0.0619 H         1 <0>         0.1266
     28 H4          3.0043    1.9954   -1.0492 H         1 <0>         0.1236
     29 H5         -0.6260   -0.5672    1.0943 H         1 <0>         0.1535
     30 H6          2.0740   -2.5531   -0.1167 H         1 <0>         0.4080
     31 H7          1.7251   -5.1606   -0.7029 H         1 <0>         0.0725
     32 H8          2.0727   -4.4449    0.9009 H         1 <0>         0.0740
     33 H9          1.5131   -7.0852    0.7226 H         1 <0>         0.0872
     34 H10         0.7832   -6.1253    2.0531 H         1 <0>         0.0781
     35 H11        -0.4725   -6.9317   -0.6310 H         1 <0>         0.0869
     36 H12        -1.1957   -7.0217    1.0085 H         1 <0>         0.0843
     37 H13        -2.2000   -3.8312   -1.2198 H         1 <0>         0.0845
     38 H14        -2.8531   -6.6753   -0.4561 H         1 <0>         0.0695
     39 H15        -3.9584   -5.3168   -0.8339 H         1 <0>         0.0658
     40 H16        -3.6262   -7.2760   -2.6561 H         1 <0>         0.0661
     41 H17        -3.6330   -5.5690   -3.2100 H         1 <0>         0.0658
     42 H18        -1.2203   -7.3755   -2.6345 H         1 <0>         0.0645
     43 H19        -1.5267   -6.3597   -4.0781 H         1 <0>         0.0630
     44 H20        -0.8731   -4.4009   -2.9914 H         1 <0>         0.0581
     45 H21         0.0367   -5.5289   -1.9469 H         1 <0>         0.0654
     46 H22         4.0568    1.1552   -2.7174 H         1 <0>         0.1202
     47 H23         4.9675    1.1449   -1.1881 H         1 <0>         0.1200
     48 H24         6.6451    1.7135   -3.2191 H         1 <0>         0.4044
     49 H25         7.5068    0.3691   -3.7413 H         1 <0>         0.4093
@<TRIPOS>BOND
     1    1    6 ar
     2    1    2 ar
     3    1   26 1
     4    2    3 ar
     5    2   27 1
     6    3    4 ar
     7    3   28 1
     8    4    5 ar
     9    4   21 1
    10    5    6 ar
    11    5    7 1
    12    6   29 1
    13    7    8 am
    14    7   30 1
    15    8    9 2
    16    8   10 am
    17   10   14 1
    18   10   11 1
    19   11   12 1
    20   11   31 1
    21   11   32 1
    22   12   13 1
    23   12   33 1
    24   12   34 1
    25   13   14 1
    26   13   35 1
    27   13   36 1
    28   14   15 1
    29   14   16 1
    30   16   20 1
    31   16   17 1
    32   16   37 1
    33   17   18 1
    34   17   38 1
    35   17   39 1
    36   18   19 1
    37   18   40 1
    38   18   41 1
    39   19   20 1
    40   19   42 1
    41   19   43 1
    42   20   44 1
    43   20   45 1
    44   21   22 1
    45   22   23 1
    46   22   46 1
    47   22   47 1
    48   23   24 2
    49   23   25 am
    50   25   48 1
    51   25   49 1
@<TRIPOS>MOLECULE
ZINC67108482
   40    43     0     0     0
SMALL
USER_CHARGES

@<TRIPOS>ATOM
      1 C1         -0.0167    1.3779    0.0096 C.ar      1 <0>        -0.1107
      2 C2          1.1711    2.0854    0.0021 C.ar      1 <0>        -0.1076
      3 C3          2.3773    1.4107   -0.0130 C.ar      1 <0>        -0.0494
      4 C4          2.3960    0.0283   -0.0201 C.ar      1 <0>        -0.0614
      5 C5          1.2086   -0.6790   -0.0117 C.ar      1 <0>        -0.1728
      6 C6          0.0021   -0.0041    0.0020 C.ar      1 <0>        -0.0743
      7 C7          1.2291   -2.1858   -0.0204 C.3       1 <0>         0.5071
      8 F1          1.2492   -2.6596    1.2958 F         1 <0>        -0.1749
      9 F2          0.0864   -2.6639   -0.6707 F         1 <0>        -0.1757
     10 F3          2.3706   -2.6328   -0.6944 F         1 <0>        -0.1754
     11 C8          3.6720    2.1819   -0.0222 C.3       1 <0>        -0.1297
     12 H1          4.5339    1.6585    0.3915 H         1 <0>         0.1292
     13 C9          3.5946    3.6949    0.1920 C.3       1 <0>        -0.1801
     14 C10         3.9191    3.1334   -1.1946 C.3       1 <0>         0.0987
     15 H2          4.9438    3.2363   -1.5519 H         1 <0>         0.1489
     16 N1          2.8791    3.2251   -2.2223 N.am      1 <0>        -0.6991
     17 C11         3.2002    3.6089   -3.4737 C.2       1 <0>         0.5699
     18 O1          4.3530    3.8791   -3.7497 O.2       1 <0>        -0.5278
     19 C12         2.1522    3.7013   -4.5092 C.ar      1 <0>        -0.1302
     20 C13         0.8249    3.3961   -4.1907 C.ar      1 <0>        -0.0735
     21 C14        -0.1544    3.4818   -5.1540 C.ar      1 <0>        -0.1098
     22 C15         0.1735    3.8717   -6.4469 C.ar      1 <0>         0.1199
     23 C16         1.4989    4.1782   -6.7720 C.ar      1 <0>         0.0816
     24 C17         2.4843    4.0988   -5.8056 C.ar      1 <0>        -0.0374
     25 N2          1.5106    4.5299   -8.1206 N.am      1 <0>        -0.6389
     26 H3          2.2913    4.7931   -8.6326 H         1 <0>         0.4399
     27 C18         0.2522    4.4408   -8.5908 C.2       1 <0>         0.6853
     28 O2         -0.0869    4.6806   -9.7345 O.2       1 <0>        -0.5463
     29 N3         -0.5742    4.0464   -7.6042 N.am      1 <0>        -0.6384
     30 H4         -1.5306    3.9074   -7.6875 H         1 <0>         0.4390
     31 H5         -0.9591    1.9051    0.0259 H         1 <0>         0.1394
     32 H6          1.1565    3.1653    0.0076 H         1 <0>         0.1344
     33 H7          3.3385   -0.4989   -0.0326 H         1 <0>         0.1385
     34 H8         -0.9258   -0.5567    0.0079 H         1 <0>         0.1383
     35 H9          2.6072    4.1324    0.3396 H         1 <0>         0.1038
     36 H10         4.4058    4.1668    0.7463 H         1 <0>         0.1141
     37 H11         1.9593    3.0095   -2.0021 H         1 <0>         0.4009
     38 H12         0.5680    3.0923   -3.1867 H         1 <0>         0.1340
     39 H13        -1.1784    3.2455   -4.9050 H         1 <0>         0.1418
     40 H14         3.5077    4.3390   -6.0536 H         1 <0>         0.1486
@<TRIPOS>BOND
     1    1    6 ar
     2    1    2 ar
     3    1   31 1
     4    2    3 ar
     5    2   32 1
     6    3    4 ar
     7    3   11 1
     8    4    5 ar
     9    4   33 1
    10    5    6 ar
    11    5    7 1
    12    6   34 1
    13    7    8 1
    14    7    9 1
    15    7   10 1
    16   11   12 1
    17   11   14 1
    18   11   13 1
    19   13   14 1
    20   13   35 1
    21   13   36 1
    22   14   15 1
    23   14   16 1
    24   16   17 am
    25   16   37 1
    26   17   18 2
    27   17   19 1
    28   19   24 ar
    29   19   20 ar
    30   20   21 ar
    31   20   38 1
    32   21   22 ar
    33   21   39 1
    34   22   29 1
    35   22   23 ar
    36   23   24 ar
    37   23   25 1
    38   24   40 1
    39   25   26 1
    40   25   27 am
    41   27   28 2
    42   27   29 am
    43   29   30 1
@<TRIPOS>MOLECULE
ZINC28469879
   42    43     0     0     0
SMALL
USER_CHARGES
ethyl (4S)-4-(4-acetamidophenyl)-6-methyl-2-thioxo-3,4-dihydro-1H-pyrimidine-5-carboxylate
@<TRIPOS>ATOM
      1 C1          4.4638   -1.9006    2.1055 C.3       1 <0>        -0.1553
      2 C2          3.5280   -2.9572    2.6961 C.3       1 <0>         0.0619
      3 O1          2.5911   -3.3736    1.7006 O.3       1 <0>        -0.3422
      4 C3          1.6881   -4.3090    2.0622 C.2       1 <0>         0.5350
      5 O2          1.6972   -4.7583    3.1930 O.2       1 <0>        -0.5138
      6 C4          0.7314   -4.7670    1.1270 C.2       1 <0>        -0.2713
      7 C5         -0.1813   -5.7032    1.4647 C.2       1 <0>         0.2412
      8 N1         -1.1044   -6.1444    0.5618 N.pl3     1 <0>        -0.6178
      9 C6         -1.1811   -5.7010   -0.6993 C.2       1 <0>         0.5596
     10 S1         -2.3889   -6.3410   -1.7300 S.2       1 <0>        -0.6091
     11 N2         -0.3382   -4.7677   -1.1839 N.pl3     1 <0>        -0.6613
     12 C7          0.6968   -4.2252   -0.2877 C.3       1 <0>         0.2241
     13 H1          1.6367   -4.5480   -0.7594 H         1 <0>         0.0993
     14 C8          0.5072   -2.7322   -0.2090 C.ar      1 <0>        -0.1249
     15 C9          1.6040   -1.8929   -0.2779 C.ar      1 <0>        -0.0521
     16 C10         1.4336   -0.5242   -0.2061 C.ar      1 <0>        -0.1267
     17 C11         0.1591    0.0088   -0.0639 C.ar      1 <0>         0.1633
     18 C12        -0.9397   -0.8370    0.0108 C.ar      1 <0>        -0.1505
     19 C13        -0.7631   -2.2046   -0.0674 C.ar      1 <0>        -0.0765
     20 N3         -0.0169    1.3950    0.0097 N.am      1 <0>        -0.6906
     21 C14         0.8018    2.2157   -0.6778 C.2       1 <0>         0.5119
     22 O3          1.6290    1.7527   -1.4344 O.2       1 <0>        -0.5265
     23 C15         0.6894    3.7087   -0.5065 C.3       1 <0>        -0.1768
     24 C16        -0.1808   -6.2695    2.8612 C.3       1 <0>        -0.1224
     25 H2          5.1850   -1.5801    2.8718 H         1 <0>         0.0802
     26 H3          3.8742   -1.0341    1.7716 H         1 <0>         0.0669
     27 H4          5.0050   -2.3280    1.2485 H         1 <0>         0.0676
     28 H5          4.1176   -3.8237    3.0300 H         1 <0>         0.0682
     29 H6          2.9868   -2.5298    3.5531 H         1 <0>         0.0670
     30 H7         -1.8407   -6.9069    0.8559 H         1 <0>         0.4742
     31 H8         -0.4096   -4.4101   -2.2217 H         1 <0>         0.4783
     32 H9          2.5948   -2.3080   -0.3885 H         1 <0>         0.1325
     33 H10         2.2905    0.1308   -0.2600 H         1 <0>         0.1347
     34 H11        -1.9317   -0.4257    0.1255 H         1 <0>         0.1260
     35 H12        -1.6177   -2.8628   -0.0139 H         1 <0>         0.1161
     36 H13        -0.8235    1.8149    0.6287 H         1 <0>         0.4361
     37 H14         1.4342    4.2080   -1.1437 H         1 <0>         0.0975
     38 H15         0.8719    3.9718    0.5459 H         1 <0>         0.0931
     39 H16        -0.3199    4.0361   -0.7966 H         1 <0>         0.0923
     40 H17        -0.9860   -7.0129    2.9557 H         1 <0>         0.0736
     41 H18        -0.3439   -5.4582    3.5859 H         1 <0>         0.1084
     42 H19         0.7879   -6.7507    3.0613 H         1 <0>         0.1090
@<TRIPOS>BOND
     1    1    2 1
     2    1   25 1
     3    1   26 1
     4    1   27 1
     5    2    3 1
     6    2   28 1
     7    2   29 1
     8    3    4 1
     9    4    5 2
    10    4    6 1
    11    6   12 1
    12    6    7 2
    13    7    8 1
    14    7   24 1
    15    8    9 1
    16    8   30 1
    17    9   10 2
    18    9   11 1
    19   11   12 1
    20   11   31 1
    21   12   13 1
    22   12   14 1
    23   14   19 ar
    24   14   15 ar
    25   15   16 ar
    26   15   32 1
    27   16   17 ar
    28   16   33 1
    29   17   18 ar
    30   17   20 1
    31   18   19 ar
    32   18   34 1
    33   19   35 1
    34   20   21 am
    35   20   36 1
    36   21   22 2
    37   21   23 1
    38   23   37 1
    39   23   38 1
    40   23   39 1
    41   24   40 1
    42   24   41 1
    43   24   42 1
@<TRIPOS>MOLECULE
ZINC49127100
   35    36     0     0     0
SMALL
USER_CHARGES

@<TRIPOS>ATOM
      1 C1         -1.7435    1.0619   -2.9453 C.3       1 <0>        -0.1654
      2 C2         -0.2936    1.3184   -2.5295 C.3       1 <0>         0.1228
      3 N1          0.3997    0.0389   -2.3609 N.pl3     1 <0>        -0.3456
      4 C3          1.5462   -0.3279   -2.9712 C.2       1 <0>         0.1961
      5 C4          1.8581   -1.5756   -2.5527 C.2       1 <0>        -0.8535
      6 C5          0.8639   -1.9886   -1.6510 C.2       1 <0>         0.4183
      7 N2         -0.0082   -1.0152   -1.5335 N.2       1 <0>        -0.3460
      8 N3          0.8146   -3.2212   -0.9891 N.pl3     1 <0>        -0.8386
      9 S1          3.2627   -2.5159   -3.0504 S.o2      1 <0>         2.7242
     10 O1          3.9684   -1.7229   -3.9950 O.2       1 <0>        -0.9579
     11 O2          3.8682   -3.0023   -1.8604 O.2       1 <0>        -0.9569
     12 N4          2.6999   -3.8400   -3.8704 N.pl3     1 <0>        -1.1156
     13 C6          1.9963   -3.6684   -5.1438 C.3       1 <0>         0.2447
     14 H1          1.5661   -2.6679   -5.1893 H         1 <0>         0.1075
     15 C7          2.9815   -3.8529   -6.2998 C.3       1 <0>        -0.1714
     16 C8          0.8968   -4.6933   -5.2524 C.2       1 <0>        -0.1460
     17 C9         -0.3570   -4.5504   -5.7461 C.2       1 <0>        -0.1397
     18 C10        -1.2065   -5.6414   -5.7456 C.2       1 <0>        -0.1353
     19 C11        -0.7588   -6.8224   -5.2506 C.2       1 <0>        -0.1204
     20 S2          0.9112   -6.4123   -4.7710 S.3       1 <0>         0.1043
     21 Cl1        -1.5914   -8.3403   -5.1230 Cl        1 <0>         0.0195
     22 H2         -1.7598    0.5131   -3.8869 H         1 <0>         0.0617
     23 H3         -2.2443    0.4761   -2.1745 H         1 <0>         0.0723
     24 H4         -2.2593    2.0139   -3.0707 H         1 <0>         0.0790
     25 H5          0.2072    1.9043   -3.3003 H         1 <0>         0.1034
     26 H6         -0.2773    1.8673   -1.5879 H         1 <0>         0.0922
     27 H7          2.1136    0.2688   -3.6700 H         1 <0>         0.1941
     28 H8          1.5467   -3.8508   -1.0814 H         1 <0>         0.4117
     29 H9          0.0485   -3.4455   -0.4382 H         1 <0>         0.4110
     30 H10         2.8362   -4.7292   -3.5076 H         1 <0>         0.4176
     31 H11         3.7767   -3.1116   -6.2213 H         1 <0>         0.0842
     32 H12         3.4117   -4.8534   -6.2543 H         1 <0>         0.0676
     33 H13         2.4580   -3.7253   -7.2473 H         1 <0>         0.0748
     34 H14        -0.6880   -3.5983   -6.1339 H         1 <0>         0.1421
     35 H15        -2.2109   -5.5545   -6.1329 H         1 <0>         0.1434
@<TRIPOS>BOND
     1    1    2 1
     2    1   22 1
     3    1   23 1
     4    1   24 1
     5    2    3 1
     6    2   25 1
     7    2   26 1
     8    3    7 1
     9    3    4 1
    10    4    5 2
    11    4   27 1
    12    5    6 1
    13    5    9 1
    14    6    7 2
    15    6    8 1
    16    8   28 1
    17    8   29 1
    18    9   10 2
    19    9   11 2
    20    9   12 1
    21   12   13 1
    22   12   30 1
    23   13   14 1
    24   13   15 1
    25   13   16 1
    26   15   31 1
    27   15   32 1
    28   15   33 1
    29   16   20 1
    30   16   17 2
    31   17   18 1
    32   17   34 1
    33   18   19 2
    34   18   35 1
    35   19   20 1
    36   19   21 1
@<TRIPOS>MOLECULE
ZINC50678169
   32    33     0     0     0
SMALL
USER_CHARGES

@<TRIPOS>ATOM
      1 C1         -0.0173    1.4248    0.0099 C.3       1 <0>         0.0248
      2 O1          0.0021   -0.0041    0.0020 O.3       1 <0>        -0.2938
      3 C2         -1.2014   -0.6380    0.0101 C.ar      1 <0>         0.0914
      4 C3         -2.3740    0.0990    0.0195 C.ar      1 <0>        -0.1679
      5 C4         -3.5969   -0.5464    0.0283 C.ar      1 <0>        -0.1390
      6 C5         -3.6536   -1.9286    0.0276 C.ar      1 <0>        -0.0605
      7 C6         -2.4871   -2.6715    0.0177 C.ar      1 <0>        -0.2077
      8 C7         -1.2571   -2.0300    0.0032 C.ar      1 <0>         0.2534
      9 N1         -0.0752   -2.7795   -0.0127 N.2       1 <0>        -1.0552
     10 S1         -0.1438   -4.4340   -0.0209 S.o2      1 <0>         2.5627
     11 O2         -0.6986   -4.8237    1.2280 O.2       1 <0>        -0.9991
     12 O3         -0.7235   -4.8103   -1.2626 O.2       1 <0>        -0.9957
     13 C8          1.5162   -5.0243   -0.0407 C.ar      1 <0>        -0.4652
     14 C9          2.1752   -5.2502   -1.2421 C.ar      1 <0>        -0.0821
     15 C10         3.4757   -5.7123   -1.2235 C.ar      1 <0>         0.1240
     16 N2          4.0965   -5.9406   -0.0815 N.ar      1 <0>        -0.4839
     17 C11         3.5025   -5.7380    1.0842 C.ar      1 <0>         0.4369
     18 C12         2.1942   -5.2675    1.1399 C.ar      1 <0>        -0.0955
     19 N3          4.1939   -5.9921    2.2630 N.pl3     1 <0>        -0.8225
     20 Br1        -5.3296   -2.8042    0.0408 Br        1 <0>        -0.0763
     21 H1          1.0053    1.8021    0.0021 H         1 <0>         0.0900
     22 H2         -0.5445    1.7859   -0.8732 H         1 <0>         0.0480
     23 H3         -0.5275    1.7763    0.9067 H         1 <0>         0.0477
     24 H4         -2.3332    1.1782    0.0204 H         1 <0>         0.1273
     25 H5         -4.5101    0.0301    0.0360 H         1 <0>         0.1226
     26 H6         -2.5337   -3.7505    0.0173 H         1 <0>         0.1152
     27 H7          1.6751   -5.0665   -2.1815 H         1 <0>         0.1932
     28 H8          3.9917   -5.8896   -2.1555 H         1 <0>         0.2131
     29 H9          1.7133   -5.0987    2.0921 H         1 <0>         0.1927
     30 H10         5.1074   -6.3164    2.2292 H         1 <0>         0.4192
     31 H11         3.7628   -5.8452    3.1195 H         1 <0>         0.4412
     32 H12         5.0105   -6.2652   -0.0966 H         1 <0>         0.4408
@<TRIPOS>BOND
     1    1    2 1
     2    1   21 1
     3    1   22 1
     4    1   23 1
     5    2    3 1
     6    3    8 ar
     7    3    4 ar
     8    4    5 ar
     9    4   24 1
    10    5    6 ar
    11    5   25 1
    12    6    7 ar
    13    6   20 1
    14    7    8 ar
    15    7   26 1
    16    8    9 1
    17    9   10 1
    18   10   11 2
    19   10   12 2
    20   10   13 1
    21   13   18 ar
    22   13   14 ar
    23   14   15 ar
    24   14   27 1
    25   15   16 ar
    26   15   28 1
    27   16   17 ar
    28   16   32 1
    29   17   18 ar
    30   17   19 1
    31   18   29 1
    32   19   30 1
    33   19   31 1
@<TRIPOS>MOLECULE
ZINC64394465
   50    53     0     0     0
SMALL
USER_CHARGES

@<TRIPOS>ATOM
      1 C1         -0.0088    1.3775   -0.0308 C.ar      1 <0>        -0.0780
      2 C2          1.1806    2.0778   -0.0453 C.ar      1 <0>        -0.0990
      3 C3          2.3087    1.5395    0.5418 C.ar      1 <0>        -0.1016
      4 C4          2.2542    0.2927    1.1493 C.ar      1 <0>        -0.1374
      5 C5          1.0744   -0.4164    1.1698 C.ar      1 <0>        -0.0296
      6 C6         -0.0702    0.1233    0.5785 C.ar      1 <0>        -0.1313
      7 C7         -1.3412   -0.6312    0.5973 C.2       1 <0>         0.5581
      8 O1         -1.3919   -1.7235    1.1287 O.2       1 <0>        -0.5042
      9 N1         -2.4438   -0.1083    0.0252 N.am      1 <0>        -0.6571
     10 C8         -3.6169   -0.8695   -0.0600 C.ar      1 <0>         0.1346
     11 C9         -3.5475   -2.2499   -0.0545 C.ar      1 <0>        -0.0663
     12 C10        -4.7201   -3.0058   -0.1397 C.ar      1 <0>        -0.1234
     13 C11        -5.9583   -2.3635   -0.2301 C.ar      1 <0>        -0.0970
     14 C12        -6.0230   -0.9879   -0.2357 C.ar      1 <0>        -0.1119
     15 C13        -4.8586   -0.2337   -0.1448 C.ar      1 <0>         0.1707
     16 N2         -4.9292    1.1569   -0.1441 N.pl3     1 <0>        -0.6779
     17 C14        -4.8845    1.9094   -1.4052 C.3       1 <0>         0.1398
     18 C15        -6.0992    2.8407   -1.4670 C.3       1 <0>        -0.1359
     19 C16        -6.1292    3.7172   -0.2128 C.3       1 <0>        -0.1165
     20 C17        -6.2627    2.8311    1.0278 C.3       1 <0>        -0.1367
     21 C18        -5.0559    1.8993    1.1175 C.3       1 <0>         0.1446
     22 C19        -4.6510   -4.4794   -0.1348 C.2       1 <0>         0.5629
     23 O2         -3.5734   -5.0373   -0.0565 O.2       1 <0>        -0.5324
     24 N3         -5.7823   -5.2074   -0.2170 N.am      1 <0>        -0.8513
     25 C20         3.6346   -0.0042    1.6877 C.3       1 <0>         0.0900
     26 O3          4.5273    0.8950    1.0051 O.3       1 <0>        -0.3567
     27 C21         3.7247    2.0470    0.6886 C.3       1 <0>         0.0860
     28 H1         -0.8916    1.8013   -0.4864 H         1 <0>         0.1305
     29 H2          1.2292    3.0482   -0.5168 H         1 <0>         0.1360
     30 H3          1.0338   -1.3866    1.6424 H         1 <0>         0.1432
     31 H4         -2.4252    0.7951   -0.3275 H         1 <0>         0.4123
     32 H5         -2.5894   -2.7434    0.0151 H         1 <0>         0.1614
     33 H6         -6.8650   -2.9466   -0.2960 H         1 <0>         0.1285
     34 H7         -6.9808   -0.4939   -0.3060 H         1 <0>         0.1334
     35 H8         -3.9690    2.4996   -1.4463 H         1 <0>         0.0504
     36 H9         -4.9126    1.2159   -2.2457 H         1 <0>         0.0710
     37 H10        -6.0277    3.4736   -2.3516 H         1 <0>         0.0688
     38 H11        -7.0113    2.2461   -1.5173 H         1 <0>         0.0652
     39 H12        -5.2060    4.2932   -0.1501 H         1 <0>         0.0612
     40 H13        -6.9788    4.3980   -0.2659 H         1 <0>         0.0615
     41 H14        -6.3075    3.4572    1.9189 H         1 <0>         0.0689
     42 H15        -7.1733    2.2366    0.9540 H         1 <0>         0.0646
     43 H16        -5.1972    1.1992    1.9409 H         1 <0>         0.0694
     44 H17        -4.1548    2.4887    1.2867 H         1 <0>         0.0502
     45 H18        -6.6419   -4.7623   -0.2794 H         1 <0>         0.4005
     46 H19        -5.7369   -6.1763   -0.2137 H         1 <0>         0.4062
     47 H20         3.6662    0.1787    2.7618 H         1 <0>         0.0832
     48 H21         3.9068   -1.0378    1.4740 H         1 <0>         0.1035
     49 H22         4.0620    2.4944   -0.2464 H         1 <0>         0.1035
     50 H23         3.7802    2.7768    1.4963 H         1 <0>         0.0843
@<TRIPOS>BOND
     1    1    6 ar
     2    1    2 ar
     3    1   28 1
     4    2    3 ar
     5    2   29 1
     6    3   27 1
     7    3    4 ar
     8    4    5 ar
     9    4   25 1
    10    5    6 ar
    11    5   30 1
    12    6    7 1
    13    7    8 2
    14    7    9 am
    15    9   10 1
    16    9   31 1
    17   10   15 ar
    18   10   11 ar
    19   11   12 ar
    20   11   32 1
    21   12   13 ar
    22   12   22 1
    23   13   14 ar
    24   13   33 1
    25   14   15 ar
    26   14   34 1
    27   15   16 1
    28   16   21 1
    29   16   17 1
    30   17   18 1
    31   17   35 1
    32   17   36 1
    33   18   19 1
    34   18   37 1
    35   18   38 1
    36   19   20 1
    37   19   39 1
    38   19   40 1
    39   20   21 1
    40   20   41 1
    41   20   42 1
    42   21   43 1
    43   21   44 1
    44   22   23 2
    45   22   24 am
    46   24   45 1
    47   24   46 1
    48   25   26 1
    49   25   47 1
    50   25   48 1
    51   26   27 1
    52   27   49 1
    53   27   50 1
@<TRIPOS>MOLECULE
ZINC67594006
   40    41     0     0     0
SMALL
USER_CHARGES

@<TRIPOS>ATOM
      1 C1         -0.0184    1.5028    0.0103 C.3       1 <0>        -0.0768
      2 C2          0.0021   -0.0041    0.0020 C.2       1 <0>        -0.0053
      3 C3         -1.0783   -0.8055    0.0027 C.2       1 <0>        -0.2082
      4 C4         -0.6011   -2.1363   -0.0068 C.2       1 <0>        -0.1900
      5 C5          0.7423   -2.0686   -0.0126 C.2       1 <0>         0.0038
      6 O1          1.1020   -0.7746   -0.0131 O.3       1 <0>        -0.1702
      7 C6          1.6840   -3.2450   -0.0226 C.3       1 <0>        -0.0798
      8 C7         -1.4371   -3.3901   -0.0093 C.3       1 <0>         0.2195
      9 H1         -0.9410   -4.1564   -0.6049 H         1 <0>         0.0994
     10 C8         -1.6088   -3.8915    1.4260 C.3       1 <0>        -0.1601
     11 N1         -2.7522   -3.0990   -0.5855 N.am      1 <0>        -0.7169
     12 C9         -3.4725   -4.0863   -1.1538 C.2       1 <0>         0.5568
     13 O2         -3.0309   -5.2184   -1.1882 O.2       1 <0>        -0.5071
     14 C10        -4.7990   -3.7927   -1.7350 C.ar      1 <0>        -0.1495
     15 C11        -5.3068   -2.4925   -1.7024 C.ar      1 <0>         0.0252
     16 C12        -6.5451   -2.2251   -2.2470 C.ar      1 <0>        -0.6851
     17 C13        -7.2855   -3.2419   -2.8249 C.ar      1 <0>         0.0193
     18 C14        -6.7901   -4.5323   -2.8609 C.ar      1 <0>        -0.1378
     19 C15        -5.5482   -4.8136   -2.3248 C.ar      1 <0>         0.0674
     20 Cl1        -4.9238   -6.4326   -2.3775 Cl        1 <0>        -0.0061
     21 S1         -7.1871   -0.5847   -2.2064 S.o2      1 <0>         2.7039
     22 O3         -8.6007   -0.6995   -2.2946 O.2       1 <0>        -0.9546
     23 O4         -6.5423    0.0772   -1.1269 O.2       1 <0>        -0.9568
     24 N2         -6.6863    0.1714   -3.5921 N.pl3     1 <0>        -1.2483
     25 H2          1.0042    1.8801    0.0026 H         1 <0>         0.0766
     26 H3         -0.5455    1.8639   -0.8728 H         1 <0>         0.0868
     27 H4         -0.5286    1.8543    0.9071 H         1 <0>         0.0876
     28 H5         -2.1119   -0.4924    0.0097 H         1 <0>         0.1466
     29 H6          1.9064   -3.5237   -1.0527 H         1 <0>         0.0840
     30 H7          2.6082   -2.9750    0.4883 H         1 <0>         0.0797
     31 H8          1.2186   -4.0873    0.4893 H         1 <0>         0.0904
     32 H9         -2.1050   -3.1252    2.0216 H         1 <0>         0.0608
     33 H10        -2.2135   -4.7984    1.4242 H         1 <0>         0.0668
     34 H11        -0.6304   -4.1080    1.8547 H         1 <0>         0.0691
     35 H12        -3.1046   -2.1957   -0.5580 H         1 <0>         0.3993
     36 H13        -4.7310   -1.6979   -1.2513 H         1 <0>         0.1518
     37 H14        -8.2548   -3.0264   -3.2495 H         1 <0>         0.1601
     38 H15        -7.3732   -5.3211   -3.3128 H         1 <0>         0.1557
     39 H16        -6.1407   -0.3072   -4.2356 H         1 <0>         0.4179
     40 H17        -6.9387    1.0928   -3.7601 H         1 <0>         0.4240
@<TRIPOS>BOND
     1    1    2 1
     2    1   25 1
     3    1   26 1
     4    1   27 1
     5    2    6 1
     6    2    3 2
     7    3    4 1
     8    3   28 1
     9    4    5 2
    10    4    8 1
    11    5    6 1
    12    5    7 1
    13    7   29 1
    14    7   30 1
    15    7   31 1
    16    8    9 1
    17    8   10 1
    18    8   11 1
    19   10   32 1
    20   10   33 1
    21   10   34 1
    22   11   12 am
    23   11   35 1
    24   12   13 2
    25   12   14 1
    26   14   19 ar
    27   14   15 ar
    28   15   16 ar
    29   15   36 1
    30   16   17 ar
    31   16   21 1
    32   17   18 ar
    33   17   37 1
    34   18   19 ar
    35   18   38 1
    36   19   20 1
    37   21   22 2
    38   21   23 2
    39   21   24 1
    40   24   39 1
    41   24   40 1
@<TRIPOS>MOLECULE
ZINC20424206
   39    40     0     0     0
SMALL
USER_CHARGES
4-[(4-hydroxy-3,5-dimethyl-phenyl)methylamino]benzenesulfonamide
@<TRIPOS>ATOM
      1 C1          1.7728   -7.0442   -2.5619 C.3       1 <0>        -0.1043
      2 C2          1.9100   -6.3105   -1.2527 C.ar      1 <0>        -0.1240
      3 C3          2.1404   -4.9484   -1.2445 C.ar      1 <0>        -0.0640
      4 C4          2.2668   -4.2748   -0.0436 C.ar      1 <0>        -0.1473
      5 C5          2.1686   -4.9631    1.1515 C.ar      1 <0>        -0.0636
      6 C6          1.9325   -6.3242    1.1487 C.ar      1 <0>        -0.1811
      7 C7          1.8054   -7.0024   -0.0549 C.ar      1 <0>         0.1672
      8 O1          1.5782   -8.3423   -0.0604 O.3       1 <0>        -0.5042
      9 C8          1.8195   -7.0727    2.4517 C.3       1 <0>        -0.1117
     10 C9          2.5182   -2.7889   -0.0375 C.3       1 <0>         0.1691
     11 N1          1.2378   -2.0771   -0.0214 N.pl3     1 <0>        -0.7412
     12 C10         1.2152   -0.6806   -0.0132 C.ar      1 <0>         0.2758
     13 C11         0.0021   -0.0041    0.0020 C.ar      1 <0>        -0.2176
     14 C12        -0.0167    1.3768    0.0096 C.ar      1 <0>         0.0341
     15 C13         1.1705    2.0860    0.0021 C.ar      1 <0>        -0.7235
     16 C14         2.3799    1.4157   -0.0132 C.ar      1 <0>         0.0237
     17 C15         2.4059    0.0349   -0.0208 C.ar      1 <0>        -0.2227
     18 S1          1.1420    3.8478    0.0113 S.o2      1 <0>         2.6394
     19 O2          2.3754    4.2768   -0.5490 O.2       1 <0>        -0.9935
     20 O3         -0.1149    4.2364   -0.5258 O.2       1 <0>        -0.9594
     21 N2          1.1489    4.3293    1.5957 N.pl3     1 <0>        -1.1653
     22 H1          1.8843   -6.3334   -3.3940 H         1 <0>         0.0643
     23 H2          0.7814   -7.5178   -2.6146 H         1 <0>         0.0686
     24 H3          2.5526   -7.8168   -2.6327 H         1 <0>         0.0688
     25 H4          2.2216   -4.4093   -2.1767 H         1 <0>         0.1289
     26 H5          2.2720   -4.4353    2.0881 H         1 <0>         0.1244
     27 H6          1.4954   -8.8900    0.8899 H         1 <0>         0.4281
     28 H7          1.6322   -8.1373    2.2479 H         1 <0>         0.0591
     29 H8          0.9870   -6.6601    3.0406 H         1 <0>         0.0755
     30 H9          2.7568   -6.9670    3.0177 H         1 <0>         0.0758
     31 H10         3.0991   -2.5190    0.8568 H         1 <0>         0.0703
     32 H11         3.0822   -2.5087   -0.9394 H         1 <0>         0.0708
     33 H12         0.2942   -2.6425   -0.0158 H         1 <0>         0.4259
     34 H13        -0.9254   -0.5574    0.0083 H         1 <0>         0.1299
     35 H14        -0.9595    1.9034    0.0169 H         1 <0>         0.1395
     36 H15         3.3052    1.9726   -0.0187 H         1 <0>         0.1375
     37 H16         3.3508   -0.4880   -0.0323 H         1 <0>         0.1294
     38 H17         1.1315    5.4281    1.6451 H         1 <0>         0.4106
     39 H18         2.0579    3.9544    2.0889 H         1 <0>         0.4071
@<TRIPOS>BOND
     1    1    2 1
     2    1   22 1
     3    1   23 1
     4    1   24 1
     5    2    7 ar
     6    2    3 ar
     7    3    4 ar
     8    3   25 1
     9    4    5 ar
    10    4   10 1
    11    5    6 ar
    12    5   26 1
    13    6    7 ar
    14    6    9 1
    15    7    8 1
    16    8   27 1
    17    9   28 1
    18    9   29 1
    19    9   30 1
    20   10   11 1
    21   10   31 1
    22   10   32 1
    23   11   12 1
    24   11   33 1
    25   12   17 ar
    26   12   13 ar
    27   13   14 ar
    28   13   34 1
    29   14   15 ar
    30   14   35 1
    31   15   16 ar
    32   15   18 1
    33   16   17 ar
    34   16   36 1
    35   17   37 1
    36   18   19 2
    37   18   20 2
    38   18   21 1
    39   21   38 1
    40   21   39 1
@<TRIPOS>MOLECULE
ZINC39280371
   32    34     0     0     0
SMALL
USER_CHARGES

@<TRIPOS>ATOM
      1 C1         -0.0168    1.3894    0.0097 C.ar      1 <0>        -0.0744
      2 C2          1.1700    2.0933    0.0021 C.ar      1 <0>        -0.1104
      3 C3          2.3782    1.4174   -0.0130 C.ar      1 <0>        -0.0261
      4 C4          2.4023    0.0332   -0.0212 C.ar      1 <0>        -0.1100
      5 C5          1.2209   -0.6798   -0.0137 C.ar      1 <0>        -0.0889
      6 C6          0.0021   -0.0041    0.0020 C.ar      1 <0>        -0.0266
      7 C7         -1.2711   -0.7657    0.0106 C.2       1 <0>         0.0068
      8 C8         -1.3627   -2.1096    0.0096 C.2       1 <0>        -0.1382
      9 C9         -2.8582   -2.3723    0.0204 C.3       1 <0>        -0.0301
     10 H1         -3.1599   -2.9158   -0.8749 H         1 <0>         0.1601
     11 N1         -3.4366   -1.0184    0.0264 N.2       1 <0>        -0.1125
     12 N2         -2.5093   -0.2060    0.0264 N.2       1 <0>        -0.1582
     13 C10        -3.2624   -3.1420    1.2794 C.3       1 <0>         0.2384
     14 H2         -3.0746   -2.5345    2.1648 H         1 <0>         0.1135
     15 N3         -2.5037   -4.4106    1.3642 N.3       1 <0>        -0.4871
     16 N4         -3.4662   -5.3787    1.9129 N.3       1 <0>        -0.5057
     17 C11        -4.7431   -4.9902    1.2585 C.3       1 <0>         0.1749
     18 H3         -5.5934   -5.3233    1.8536 H         1 <0>         0.1173
     19 N5         -4.6920   -3.5095    1.2112 N.3       1 <0>        -0.3320
     20 N6         -5.4334   -2.9260    2.3176 N.3       1 <0>        -0.6455
     21 S1         -4.8334   -5.6801   -0.4167 S.3       1 <0>        -0.1523
     22 Cl1         3.8680    2.3086   -0.0225 Cl        1 <0>        -0.0642
     23 H4         -0.9588    1.9175    0.0260 H         1 <0>         0.1450
     24 H5          1.1564    3.1732    0.0077 H         1 <0>         0.1397
     25 H6          3.3473   -0.4895   -0.0337 H         1 <0>         0.1392
     26 H7          1.2406   -1.7596   -0.0204 H         1 <0>         0.1349
     27 H8         -0.5598   -2.8319    0.0028 H         1 <0>         0.1784
     28 H9         -2.1795   -4.6996    0.4535 H         1 <0>         0.3705
     29 H10        -3.5333   -5.2930    2.9160 H         1 <0>         0.3601
     30 H11        -6.4096   -3.1769    2.2710 H         1 <0>         0.3680
     31 H12        -5.0326   -3.1955    3.2035 H         1 <0>         0.3205
     32 H13        -4.7896   -7.0104   -0.2236 H         1 <0>         0.0949
@<TRIPOS>BOND
     1    1    6 ar
     2    1    2 ar
     3    1   23 1
     4    2    3 ar
     5    2   24 1
     6    3    4 ar
     7    3   22 1
     8    4    5 ar
     9    4   25 1
    10    5    6 ar
    11    5   26 1
    12    6    7 1
    13    7   12 1
    14    7    8 2
    15    8    9 1
    16    8   27 1
    17    9   10 1
    18    9   11 1
    19    9   13 1
    20   11   12 2
    21   13   14 1
    22   13   19 1
    23   13   15 1
    24   15   16 1
    25   15   28 1
    26   16   17 1
    27   16   29 1
    28   17   18 1
    29   17   19 1
    30   17   21 1
    31   19   20 1
    32   20   30 1
    33   20   31 1
    34   21   32 1
@<TRIPOS>MOLECULE
ZINC47837326
   34    34     0     0     0
SMALL
USER_CHARGES

@<TRIPOS>ATOM
      1 C1         -0.0187    1.5258    0.0104 C.3       1 <0>        -0.1594
      2 C2          0.0021   -0.0041    0.0020 C.3       1 <0>         0.1798
      3 H1          0.5123   -0.3556   -0.8948 H         1 <0>         0.1097
      4 C3         -1.4117   -0.5257    0.0127 C.ar      1 <0>        -0.0790
      5 C4         -2.0145   -0.8638    1.2100 C.ar      1 <0>        -0.0939
      6 C5         -3.3110   -1.3422    1.2206 C.ar      1 <0>        -0.0979
      7 C6         -4.0068   -1.4827    0.0326 C.ar      1 <0>        -0.0251
      8 C7         -3.4043   -1.1441   -1.1655 C.ar      1 <0>        -0.0953
      9 C8         -2.1081   -0.6607   -1.1750 C.ar      1 <0>        -0.0176
     10 Cl1        -1.3532   -0.2298   -2.6777 Cl        1 <0>        -0.0433
     11 Cl2        -5.6352   -2.0842    0.0461 Cl        1 <0>        -0.0509
     12 N1          0.7106   -0.4894    1.1889 N.am      1 <0>        -0.7286
     13 C9          2.0538   -0.5998    1.1737 C.2       1 <0>         0.5208
     14 O1          2.6758   -0.2974    0.1774 O.2       1 <0>        -0.5242
     15 C10         2.7826   -1.0990    2.3946 C.3       1 <0>        -0.1537
     16 C11         4.2865   -1.1286    2.1142 C.3       1 <0>         0.1513
     17 N2          4.9950   -1.6139    3.3011 N.am      1 <0>        -0.7484
     18 C12         6.3382   -1.7243    3.2859 C.2       1 <0>         0.7046
     19 O2          6.9618   -1.4211    2.2871 O.2       1 <0>        -0.5883
     20 N3          6.9900   -2.1708    4.3778 N.am      1 <0>        -0.8675
     21 H2          1.0039    1.9031    0.0027 H         1 <0>         0.0720
     22 H3         -0.5459    1.8868   -0.8726 H         1 <0>         0.0719
     23 H4         -0.5289    1.8773    0.9072 H         1 <0>         0.0615
     24 H5         -1.4720   -0.7544    2.1373 H         1 <0>         0.1396
     25 H6         -3.7812   -1.6069    2.1561 H         1 <0>         0.1442
     26 H7         -3.9469   -1.2536   -2.0928 H         1 <0>         0.1486
     27 H8          0.2131   -0.7312    1.9857 H         1 <0>         0.3996
     28 H9          2.5826   -0.4337    3.2345 H         1 <0>         0.1030
     29 H10         2.4385   -2.1044    2.6374 H         1 <0>         0.1027
     30 H11         4.4865   -1.7939    1.2743 H         1 <0>         0.0774
     31 H12         4.6306   -0.1232    1.8714 H         1 <0>         0.0776
     32 H13         4.4975   -1.8557    4.0979 H         1 <0>         0.3959
     33 H14         6.4925   -2.4126    5.1746 H         1 <0>         0.3966
     34 H15         7.9567   -2.2502    4.3668 H         1 <0>         0.4165
@<TRIPOS>BOND
     1    1    2 1
     2    1   21 1
     3    1   22 1
     4    1   23 1
     5    2    3 1
     6    2    4 1
     7    2   12 1
     8    4    9 ar
     9    4    5 ar
    10    5    6 ar
    11    5   24 1
    12    6    7 ar
    13    6   25 1
    14    7    8 ar
    15    7   11 1
    16    8    9 ar
    17    8   26 1
    18    9   10 1
    19   12   13 am
    20   12   27 1
    21   13   14 2
    22   13   15 1
    23   15   16 1
    24   15   28 1
    25   15   29 1
    26   16   17 1
    27   16   30 1
    28   16   31 1
    29   17   18 am
    30   17   32 1
    31   18   19 2
    32   18   20 am
    33   20   33 1
    34   20   34 1
@<TRIPOS>MOLECULE
ZINC53112896
   39    40     0     0     0
SMALL
USER_CHARGES

@<TRIPOS>ATOM
      1 C1         -2.7198   -2.6345    2.0566 C.ar      1 <0>        -0.0468
      2 C2         -3.5964   -3.4570    2.7508 C.ar      1 <0>         0.1707
      3 C3         -4.8185   -3.8019    2.1837 C.ar      1 <0>         0.0772
      4 C4         -5.1562   -3.3245    0.9307 C.ar      1 <0>        -0.1157
      5 C5         -4.2791   -2.5052    0.2420 C.ar      1 <0>         0.0117
      6 C6         -3.0629   -2.1607    0.8050 C.ar      1 <0>        -0.6146
      7 S1         -1.9500   -1.1166   -0.0759 S.o2      1 <0>         2.6998
      8 O1         -2.6753    0.0582   -0.4121 O.2       1 <0>        -0.9544
      9 O2         -0.7458   -1.0790    0.6776 O.2       1 <0>        -0.9229
     10 N1         -1.5917   -1.8763   -1.5031 N.pl3     1 <0>        -1.0997
     11 C7         -0.5224   -2.8765   -1.5522 C.3       1 <0>         0.1955
     12 C8          0.8147   -2.2101   -1.2220 C.3       1 <0>        -0.1518
     13 C9          1.1007   -1.1071   -2.2431 C.3       1 <0>        -0.1193
     14 C10         1.1664   -1.7151   -3.6456 C.3       1 <0>        -0.1222
     15 C11        -0.1707   -2.3814   -3.9757 C.3       1 <0>        -0.1194
     16 C12        -0.4567   -3.4844   -2.9547 C.3       1 <0>        -0.1155
     17 C13        -0.8084   -3.9794   -0.5311 C.3       1 <0>         0.0451
     18 O3         -0.7038   -3.4445    0.7898 O.3       1 <0>        -0.5532
     19 Cl1        -4.7053   -1.9083   -1.3314 Cl        1 <0>        -0.0448
     20 F1         -5.6742   -4.6026    2.8559 F         1 <0>        -0.1287
     21 N2         -3.2510   -3.9385    4.0183 N.pl3     1 <0>        -0.8667
     22 H1         -1.7720   -2.3614    2.4965 H         1 <0>         0.1668
     23 H2         -6.1049   -3.5916    0.4890 H         1 <0>         0.1528
     24 H3         -2.0899   -1.6591   -2.3065 H         1 <0>         0.4159
     25 H4          0.7679   -1.7770   -0.2228 H         1 <0>         0.1229
     26 H5          1.6103   -2.9543   -1.2585 H         1 <0>         0.0703
     27 H6          0.3051   -0.3630   -2.2065 H         1 <0>         0.0581
     28 H7          2.0533   -0.6324   -2.0079 H         1 <0>         0.0652
     29 H8          1.3702   -0.9293   -4.3730 H         1 <0>         0.0623
     30 H9          1.9620   -2.4592   -3.6821 H         1 <0>         0.0630
     31 H10        -0.9663   -1.6373   -3.9392 H         1 <0>         0.0640
     32 H11        -0.1239   -2.8145   -4.9749 H         1 <0>         0.0675
     33 H12         0.3389   -4.2285   -2.9912 H         1 <0>         0.0808
     34 H13        -1.4093   -3.9591   -3.1899 H         1 <0>         0.0721
     35 H14        -1.8151   -4.3671   -0.6874 H         1 <0>         0.0547
     36 H15        -0.0854   -4.7856   -0.6550 H         1 <0>         0.0671
     37 H16        -0.8730   -4.0896    1.4900 H         1 <0>         0.3767
     38 H17        -2.3982   -3.6975    4.4127 H         1 <0>         0.4089
     39 H18        -3.8642   -4.5132    4.5025 H         1 <0>         0.4064
@<TRIPOS>BOND
     1    1    6 ar
     2    1    2 ar
     3    1   22 1
     4    2    3 ar
     5    2   21 1
     6    3    4 ar
     7    3   20 1
     8    4    5 ar
     9    4   23 1
    10    5    6 ar
    11    5   19 1
    12    6    7 1
    13    7    8 2
    14    7    9 2
    15    7   10 1
    16   10   11 1
    17   10   24 1
    18   11   16 1
    19   11   12 1
    20   11   17 1
    21   12   13 1
    22   12   25 1
    23   12   26 1
    24   13   14 1
    25   13   27 1
    26   13   28 1
    27   14   15 1
    28   14   29 1
    29   14   30 1
    30   15   16 1
    31   15   31 1
    32   15   32 1
    33   16   33 1
    34   16   34 1
    35   17   18 1
    36   17   35 1
    37   17   36 1
    38   18   37 1
    39   21   38 1
    40   21   39 1
@<TRIPOS>MOLECULE
ZINC66977362
   46    48     0     0     0
SMALL
USER_CHARGES

@<TRIPOS>ATOM
      1 C1          3.6347   -4.7974   -1.1587 C.ar      1 <0>        -0.1083
      2 C2          3.6045   -3.7971   -2.1127 C.ar      1 <0>        -0.1228
      3 C3          3.6430   -2.4753   -1.7205 C.ar      1 <0>        -0.1130
      4 C4          3.7142   -2.1401   -0.3742 C.ar      1 <0>        -0.1118
      5 C5          3.7493   -3.1362    0.5754 C.ar      1 <0>        -0.0536
      6 C6          3.7060   -4.4667    0.1785 C.ar      1 <0>        -0.1247
      7 C7          3.8426   -2.8468    2.0507 C.3       1 <0>        -0.0865
      8 C8          3.4510   -1.3992    2.3401 C.3       1 <0>        -0.1177
      9 C9          4.2567   -0.4846    1.4101 C.3       1 <0>        -0.1057
     10 C10         3.7459   -0.6773   -0.0163 C.3       1 <0>         0.1709
     11 C11         4.6706    0.0597   -0.9872 C.3       1 <0>         0.1156
     12 N1          4.7329    1.4770   -0.6216 N.am      1 <0>        -0.7389
     13 C12         5.4181    2.3429   -1.3944 C.2       1 <0>         0.7040
     14 O1          5.9846    1.9477   -2.3950 O.2       1 <0>        -0.5894
     15 N2          5.4754    3.6467   -1.0580 N.am      1 <0>        -0.7421
     16 C13         6.2202    4.5879   -1.8980 C.3       1 <0>         0.1806
     17 C14         6.1283    5.9708   -1.3062 C.ar      1 <0>        -0.0937
     18 C15         5.0938    6.8119   -1.6732 C.ar      1 <0>        -0.1084
     19 C16         5.0067    8.0811   -1.1322 C.ar      1 <0>        -0.1037
     20 C17         5.9537    8.5124   -0.2233 C.ar      1 <0>        -0.1367
     21 C18         6.9923    7.6706    0.1465 C.ar      1 <0>         0.1038
     22 C19         7.0741    6.3950   -0.3935 C.ar      1 <0>        -0.1256
     23 O2          7.9251    8.0924    1.0403 O.3       1 <0>        -0.4982
     24 O3          2.4269   -0.1377   -0.1215 O.3       1 <0>        -0.5460
     25 H1          3.5981   -5.8341   -1.4593 H         1 <0>         0.1245
     26 H2          3.5515   -4.0498   -3.1614 H         1 <0>         0.1248
     27 H3          3.6178   -1.6944   -2.4661 H         1 <0>         0.1235
     28 H4          3.7286   -5.2486    0.9231 H         1 <0>         0.1236
     29 H5          3.1725   -3.5154    2.5911 H         1 <0>         0.0781
     30 H6          4.8658   -3.0162    2.3861 H         1 <0>         0.0789
     31 H7          2.3853   -1.2634    2.1555 H         1 <0>         0.0764
     32 H8          3.6777   -1.1583    3.3787 H         1 <0>         0.0712
     33 H9          4.1227    0.5545    1.7108 H         1 <0>         0.0748
     34 H10         5.3131   -0.7485    1.4606 H         1 <0>         0.0817
     35 H11         5.6698   -0.3728   -0.9365 H         1 <0>         0.0758
     36 H12         4.2838   -0.0371   -2.0017 H         1 <0>         0.0745
     37 H13         4.2809    1.7922    0.1767 H         1 <0>         0.3996
     38 H14         5.0234    3.9619   -0.2597 H         1 <0>         0.3974
     39 H15         7.2654    4.2824   -1.9472 H         1 <0>         0.0770
     40 H16         5.7957    4.5933   -2.9020 H         1 <0>         0.0783
     41 H17         4.3529    6.4769   -2.3841 H         1 <0>         0.1283
     42 H18         4.1978    8.7361   -1.4204 H         1 <0>         0.1306
     43 H19         5.8856    9.5042    0.1986 H         1 <0>         0.1307
     44 H20         7.8791    5.7360   -0.1035 H         1 <0>         0.1309
     45 H21         7.7032    7.8987    1.9613 H         1 <0>         0.3921
     46 H22         2.0423   -0.2088   -1.0058 H         1 <0>         0.3791
@<TRIPOS>BOND
     1    1    6 ar
     2    1    2 ar
     3    1   25 1
     4    2    3 ar
     5    2   26 1
     6    3    4 ar
     7    3   27 1
     8    4   10 1
     9    4    5 ar
    10    5    6 ar
    11    5    7 1
    12    6   28 1
    13    7    8 1
    14    7   29 1
    15    7   30 1
    16    8    9 1
    17    8   31 1
    18    8   32 1
    19    9   10 1
    20    9   33 1
    21    9   34 1
    22   10   11 1
    23   10   24 1
    24   11   12 1
    25   11   35 1
    26   11   36 1
    27   12   13 am
    28   12   37 1
    29   13   14 2
    30   13   15 am
    31   15   16 1
    32   15   38 1
    33   16   17 1
    34   16   39 1
    35   16   40 1
    36   17   22 ar
    37   17   18 ar
    38   18   19 ar
    39   18   41 1
    40   19   20 ar
    41   19   42 1
    42   20   21 ar
    43   20   43 1
    44   21   22 ar
    45   21   23 1
    46   22   44 1
    47   23   45 1
    48   24   46 1
@<TRIPOS>MOLECULE
ZINC09047786
   44    46     0     0     0
SMALL
USER_CHARGES
9-[(4-hydroxy-3,5-dimethoxy-phenyl)methyl]-7,7-dioxo-7$l^{6}-thia-8-azabicyclo[4.4.0]deca-2,4,11-trien-10-ol
@<TRIPOS>ATOM
      1 C1          2.4331    4.1140    0.0005 C.3       1 <0>         0.0224
      2 O1          1.1663    3.4529    0.0090 O.3       1 <0>        -0.3020
      3 C2          1.1794    2.0931    0.0020 C.ar      1 <0>         0.1465
      4 C3          2.3864    1.4105   -0.0132 C.ar      1 <0>        -0.2273
      5 C4          2.4008    0.0283   -0.0212 C.ar      1 <0>        -0.0131
      6 C5          1.2133   -0.6791   -0.0132 C.ar      1 <0>        -0.2276
      7 C6          0.0021   -0.0041    0.0020 C.ar      1 <0>         0.1467
      8 C7         -0.0168    1.3856    0.0097 C.ar      1 <0>         0.0379
      9 O2         -1.2035    2.0518    0.0189 O.3       1 <0>        -0.4722
     10 O3         -1.1658   -0.7009    0.0099 O.3       1 <0>        -0.3027
     11 C8         -1.0705   -2.1267    0.0013 C.3       1 <0>         0.0243
     12 C9          3.7148   -0.7094   -0.0382 C.3       1 <0>        -0.0740
     13 C10         4.1451   -0.9513   -1.4863 C.3       1 <0>         0.1589
     14 H1          3.3484   -1.4677   -2.0217 H         1 <0>         0.1055
     15 C11         5.4044   -1.8014   -1.5066 C.3       1 <0>         0.1176
     16 H2          5.1796   -2.7657   -1.0510 H         1 <0>         0.0916
     17 C12         5.9585   -2.0395   -2.8801 C.ar      1 <0>        -0.0397
     18 C13         6.7232   -3.1879   -3.0710 C.ar      1 <0>        -0.1298
     19 C14         7.2795   -3.4679   -4.3001 C.ar      1 <0>        -0.0677
     20 C15         7.0843   -2.6052   -5.3628 C.ar      1 <0>        -0.1216
     21 C16         6.3220   -1.4677   -5.1827 C.ar      1 <0>        -0.0285
     22 C17         5.7578   -1.1935   -3.9492 C.ar      1 <0>        -0.6322
     23 S1          4.7654    0.2589   -3.7707 S.o2      1 <0>         2.6831
     24 O4          5.5965    1.3699   -4.0777 O.2       1 <0>        -0.9519
     25 O5          3.5375    0.0076   -4.4402 O.2       1 <0>        -0.9466
     26 N1          4.4234    0.3420   -2.1409 N.pl3     1 <0>        -1.0977
     27 O6          6.4054   -1.1508   -0.7214 O.3       1 <0>        -0.5411
     28 H3          3.0013    3.8221    0.8837 H         1 <0>         0.0589
     29 H4          2.9846    3.8311   -0.8961 H         1 <0>         0.0578
     30 H5          2.2799    5.1932    0.0074 H         1 <0>         0.1050
     31 H6          3.3164    1.9595   -0.0191 H         1 <0>         0.1342
     32 H7          1.2287   -1.7590   -0.0191 H         1 <0>         0.1360
     33 H8         -1.5422    2.2395    0.9049 H         1 <0>         0.3820
     34 H9         -2.0716   -2.5578    0.0089 H         1 <0>         0.1035
     35 H10        -0.5425   -2.4502   -0.8957 H         1 <0>         0.0586
     36 H11        -0.5248   -2.4597    0.8841 H         1 <0>         0.0575
     37 H12         4.4724   -0.1140    0.4714 H         1 <0>         0.1004
     38 H13         3.6010   -1.6661    0.4717 H         1 <0>         0.0948
     39 H14         6.8821   -3.8666   -2.2460 H         1 <0>         0.1335
     40 H15         7.8695   -4.3627   -4.4336 H         1 <0>         0.1357
     41 H16         7.5239   -2.8192   -6.3258 H         1 <0>         0.1395
     42 H17         6.1658   -0.7890   -6.0081 H         1 <0>         0.1357
     43 H18         4.4081    1.1823   -1.6564 H         1 <0>         0.4248
     44 H19         7.2453   -1.6282   -0.6808 H         1 <0>         0.3834
@<TRIPOS>BOND
     1    1    2 1
     2    1   28 1
     3    1   29 1
     4    1   30 1
     5    2    3 1
     6    3    8 ar
     7    3    4 ar
     8    4    5 ar
     9    4   31 1
    10    5    6 ar
    11    5   12 1
    12    6    7 ar
    13    6   32 1
    14    7    8 ar
    15    7   10 1
    16    8    9 1
    17    9   33 1
    18   10   11 1
    19   11   34 1
    20   11   35 1
    21   11   36 1
    22   12   13 1
    23   12   37 1
    24   12   38 1
    25   13   14 1
    26   13   26 1
    27   13   15 1
    28   15   16 1
    29   15   17 1
    30   15   27 1
    31   17   22 ar
    32   17   18 ar
    33   18   19 ar
    34   18   39 1
    35   19   20 ar
    36   19   40 1
    37   20   21 ar
    38   20   41 1
    39   21   22 ar
    40   21   42 1
    41   22   23 1
    42   23   24 2
    43   23   25 2
    44   23   26 1
    45   26   43 1
    46   27   44 1
@<TRIPOS>MOLECULE
ZINC32585326
   36    37     0     0     0
SMALL
USER_CHARGES
3-fluoro-4-methoxy-N-(4-sulfamoylphenyl)benzenesulfonamide
@<TRIPOS>ATOM
      1 C1          6.0557    3.8517    1.2102 C.3       1 <0>         0.0157
      2 O1          5.3667    3.7717   -0.0392 O.3       1 <0>        -0.3002
      3 C2          4.0991    3.2808   -0.0147 C.ar      1 <0>         0.1573
      4 C3          3.5306    2.8850    1.1864 C.ar      1 <0>        -0.2029
      5 C4          2.2399    2.3920    1.2099 C.ar      1 <0>         0.0157
      6 C5          1.5182    2.2822    0.0357 C.ar      1 <0>        -0.6949
      7 C6          2.0812    2.6758   -1.1641 C.ar      1 <0>        -0.0142
      8 C7          3.3709    3.1753   -1.1929 C.ar      1 <0>         0.0519
      9 F1          3.9215    3.5595   -2.3652 F         1 <0>        -0.1235
     10 S1         -0.1247    1.6463    0.0695 S.o2      1 <0>         2.6978
     11 O2         -0.8196    2.2591   -1.0079 O.2       1 <0>        -0.9437
     12 O3         -0.5696    1.7421    1.4157 O.2       1 <0>        -0.9423
     13 N1         -0.0319    0.0313   -0.2846 N.pl3     1 <0>        -1.0836
     14 C8          0.6470   -0.8345    0.5758 C.ar      1 <0>         0.1891
     15 C9          1.9009   -1.3203    0.2276 C.ar      1 <0>        -0.1352
     16 C10         2.5716   -2.1724    1.0829 C.ar      1 <0>        -0.0186
     17 C11         1.9916   -2.5504    2.2800 C.ar      1 <0>        -0.6596
     18 C12         0.7412   -2.0727    2.6274 C.ar      1 <0>        -0.0026
     19 C13         0.0674   -1.2162    1.7791 C.ar      1 <0>        -0.1271
     20 S2          2.8481   -3.6425    3.3655 S.o2      1 <0>         2.6346
     21 O4          4.2306   -3.5146    3.0626 O.2       1 <0>        -0.9845
     22 O5          2.3289   -3.4107    4.6677 O.2       1 <0>        -0.9482
     23 N2          2.4135   -5.1857    2.9505 N.pl3     1 <0>        -1.1615
     24 H1          7.0629    4.2629    1.0478 H         1 <0>         0.1129
     25 H2          6.1365    2.8464    1.6494 H         1 <0>         0.0659
     26 H3          5.4980    4.5073    1.8951 H         1 <0>         0.0657
     27 H4          4.0947    2.9660    2.1038 H         1 <0>         0.1515
     28 H5          1.7957    2.0882    2.1463 H         1 <0>         0.1520
     29 H6          1.5137    2.5935   -2.0793 H         1 <0>         0.1600
     30 H7         -0.5050   -0.3597   -1.1975 H         1 <0>         0.4600
     31 H8          2.3525   -1.0290   -0.7092 H         1 <0>         0.1407
     32 H9          3.5483   -2.5472    0.8146 H         1 <0>         0.1470
     33 H10         0.2913   -2.3696    3.5632 H         1 <0>         0.1514
     34 H11        -0.9090   -0.8433    2.0512 H         1 <0>         0.1485
     35 H12         2.9292   -5.9012    3.6079 H         1 <0>         0.4155
     36 H13         2.6971   -5.3779    1.9052 H         1 <0>         0.4095
@<TRIPOS>BOND
     1    1    2 1
     2    1   24 1
     3    1   25 1
     4    1   26 1
     5    2    3 1
     6    3    8 ar
     7    3    4 ar
     8    4    5 ar
     9    4   27 1
    10    5    6 ar
    11    5   28 1
    12    6    7 ar
    13    6   10 1
    14    7    8 ar
    15    7   29 1
    16    8    9 1
    17   10   11 2
    18   10   12 2
    19   10   13 1
    20   13   14 1
    21   13   30 1
    22   14   19 ar
    23   14   15 ar
    24   15   16 ar
    25   15   31 1
    26   16   17 ar
    27   16   32 1
    28   17   18 ar
    29   17   20 1
    30   18   19 ar
    31   18   33 1
    32   19   34 1
    33   20   21 2
    34   20   22 2
    35   20   23 1
    36   23   35 1
    37   23   36 1
@<TRIPOS>MOLECULE
ZINC46587885
   40    43     0     0     0
SMALL
USER_CHARGES

@<TRIPOS>ATOM
      1 C1         -0.4285    1.1484   -0.1681 C.ar      1 <0>        -0.1363
      2 C2         -1.5026    0.6134   -0.8614 C.ar      1 <0>        -0.0836
      3 C3         -1.5053   -0.7136   -1.2366 C.ar      1 <0>        -0.1133
      4 C4         -0.4251   -1.5291   -0.9211 C.ar      1 <0>         0.0809
      5 C5          0.6600   -0.9851   -0.2201 C.ar      1 <0>        -0.1188
      6 C6          0.6523    0.3545    0.1538 C.ar      1 <0>        -0.0642
      7 C7          1.6198   -2.0923   -0.0474 C.ar      1 <0>        -0.1340
      8 C8          2.8704   -2.2013    0.5531 C.ar      1 <0>        -0.0424
      9 C9          3.5309   -3.4102    0.5461 C.ar      1 <0>        -0.1577
     10 C10         2.9485   -4.5198   -0.0604 C.ar      1 <0>         0.1771
     11 C11         1.7040   -4.4194   -0.6603 C.ar      1 <0>        -0.1195
     12 C12         1.0280   -3.2063   -0.6599 C.ar      1 <0>         0.1042
     13 O1         -0.1709   -2.8345   -1.1605 O.3       1 <0>        -0.1979
     14 N1          3.6249   -5.7443   -0.0643 N.am      1 <0>        -0.6708
     15 C13         2.9333   -6.8965    0.0385 C.2       1 <0>         0.5128
     16 O2          1.7206   -6.8769    0.0508 O.2       1 <0>        -0.5095
     17 C14         3.6667   -8.2092    0.1381 C.3       1 <0>        -0.1377
     18 C15         2.6548   -9.3520    0.2437 C.3       1 <0>        -0.1078
     19 C16         3.3994  -10.6848    0.3449 C.3       1 <0>         0.0923
     20 H1          4.0976  -10.6701    1.1818 H         1 <0>         0.1342
     21 C17         2.4203  -11.8332    0.4871 C.2       1 <0>         0.5292
     22 O3          1.6238  -12.0095    1.3839 O.2       1 <0>        -0.4578
     23 N2          2.6190  -12.6170   -0.5910 N.am      1 <0>        -0.6794
     24 C18         3.5775  -12.1285   -1.3864 C.2       1 <0>         0.7044
     25 O4          3.9346  -12.6605   -2.4192 O.2       1 <0>        -0.5383
     26 N3          4.1052  -10.9809   -0.9138 N.am      1 <0>        -0.7247
     27 H2         -0.4360    2.1901    0.1168 H         1 <0>         0.1341
     28 H3         -2.3454    1.2414   -1.1099 H         1 <0>         0.1391
     29 H4         -2.3482   -1.1198   -1.7760 H         1 <0>         0.1359
     30 H5          1.4896    0.7715    0.6938 H         1 <0>         0.1303
     31 H6          3.3221   -1.3403    1.0232 H         1 <0>         0.1362
     32 H7          4.5018   -3.4971    1.0113 H         1 <0>         0.1380
     33 H8          1.2593   -5.2848   -1.1289 H         1 <0>         0.1512
     34 H9          4.5917   -5.7641   -0.1410 H         1 <0>         0.4168
     35 H10         4.2821   -8.3499   -0.7505 H         1 <0>         0.1011
     36 H11         4.3025   -8.2039    1.0234 H         1 <0>         0.1085
     37 H12         2.0394   -9.2113    1.1323 H         1 <0>         0.1032
     38 H13         2.0190   -9.3573   -0.6416 H         1 <0>         0.0875
     39 H14         2.1280  -13.4346   -0.7682 H         1 <0>         0.4356
     40 H15         4.8094  -10.4529   -1.3214 H         1 <0>         0.4413
@<TRIPOS>BOND
     1    1    6 ar
     2    1    2 ar
     3    1   27 1
     4    2    3 ar
     5    2   28 1
     6    3    4 ar
     7    3   29 1
     8    4   13 1
     9    4    5 ar
    10    5    6 ar
    11    5    7 1
    12    6   30 1
    13    7   12 ar
    14    7    8 ar
    15    8    9 ar
    16    8   31 1
    17    9   10 ar
    18    9   32 1
    19   10   11 ar
    20   10   14 1
    21   11   12 ar
    22   11   33 1
    23   12   13 1
    24   14   15 am
    25   14   34 1
    26   15   16 2
    27   15   17 1
    28   17   18 1
    29   17   35 1
    30   17   36 1
    31   18   19 1
    32   18   37 1
    33   18   38 1
    34   19   20 1
    35   19   26 1
    36   19   21 1
    37   21   22 2
    38   21   23 am
    39   23   24 am
    40   23   39 1
    41   24   25 2
    42   24   26 am
    43   26   40 1
@<TRIPOS>MOLECULE
ZINC07982474
   44    47     0     0     0
SMALL
USER_CHARGES

@<TRIPOS>ATOM
      1 C1          0.8345    1.2677   -0.7209 C.ar      1 <0>        -0.1258
      2 C2          1.8665    1.9238   -0.0597 C.ar      1 <0>        -0.1397
      3 C3          2.7114    1.2481    0.7710 C.ar      1 <0>        -0.0760
      4 C4          2.5433   -0.1301    0.9668 C.ar      1 <0>         0.0622
      5 C5          1.4908   -0.7907    0.2905 C.ar      1 <0>        -0.0782
      6 C6          0.6433   -0.0749   -0.5520 C.ar      1 <0>        -0.1349
      7 C7          1.5899   -2.1970    0.7037 C.2       1 <0>        -0.3262
      8 C8          0.7641   -3.2698    0.3044 C.2       1 <0>         0.5221
      9 N1          1.1583   -4.5376    0.0768 N.pl3     1 <0>        -0.4748
     10 N2          0.0237   -5.2701   -0.2976 N.2       1 <0>        -0.2862
     11 C9         -1.0016   -4.4653   -0.2912 C.2       1 <0>         0.2356
     12 N3         -0.5775   -3.2148    0.0845 N.pl3     1 <0>        -0.4698
     13 C10        -1.4227   -2.0261    0.2218 C.3       1 <0>         0.0603
     14 C11        -2.1089   -2.0434    1.5892 C.3       1 <0>         0.0654
     15 H1         -2.6448   -2.9832    1.7220 H         1 <0>         0.0888
     16 C12        -3.0937   -0.8593    1.6961 C.3       1 <0>        -0.1472
     17 C13        -2.8956   -0.3974    3.1656 C.3       1 <0>        -0.1538
     18 C14        -1.3853   -0.6820    3.3623 C.3       1 <0>         0.0504
     19 O1         -1.1316   -1.8908    2.6253 O.3       1 <0>        -0.3625
     20 S1         -2.6589   -4.9104   -0.6911 S.3       1 <0>         0.1240
     21 C15        -2.5552   -6.6776   -1.0871 C.3       1 <0>        -0.1626
     22 C16        -3.9241   -7.1919   -1.4518 C.2       1 <0>         0.5412
     23 O2         -4.8758   -6.4402   -1.4452 O.2       1 <0>        -0.5229
     24 N4         -4.0906   -8.4871   -1.7853 N.am      1 <0>        -0.8414
     25 C17         2.6844   -2.2425    1.5813 C.2       1 <0>         0.1472
     26 N5          3.2004   -1.0411    1.7040 N.2       1 <0>        -0.5193
     27 H2          0.1753    1.8247   -1.3702 H         1 <0>         0.1142
     28 H3          2.0017    2.9852   -0.2064 H         1 <0>         0.1168
     29 H4          3.5082    1.7734    1.2766 H         1 <0>         0.1165
     30 H5         -0.1607   -0.5781   -1.0685 H         1 <0>         0.1062
     31 H6          2.0621   -4.8806    0.1569 H         1 <0>         0.4703
     32 H7         -0.8072   -1.1306    0.1355 H         1 <0>         0.1514
     33 H8         -2.1783   -2.0247   -0.5638 H         1 <0>         0.1119
     34 H9         -2.8227   -0.0654    1.0001 H         1 <0>         0.0848
     35 H10        -4.1184   -1.1907    1.5284 H         1 <0>         0.0918
     36 H11        -3.1129    0.6650    3.2761 H         1 <0>         0.0886
     37 H12        -3.5000   -0.9933    3.8495 H         1 <0>         0.0807
     38 H13        -0.7903    0.1385    2.9611 H         1 <0>         0.0660
     39 H14        -1.1627   -0.8304    4.4190 H         1 <0>         0.0874
     40 H15        -1.8768   -6.8224   -1.9279 H         1 <0>         0.1331
     41 H16        -2.1813   -7.2228   -0.2205 H         1 <0>         0.1334
     42 H17        -3.3293   -9.0882   -1.7905 H         1 <0>         0.4073
     43 H18        -4.9716   -8.8180   -2.0200 H         1 <0>         0.4131
     44 H19         3.0465   -3.1295    2.0798 H         1 <0>         0.1508
@<TRIPOS>BOND
     1    1    6 ar
     2    1    2 ar
     3    1   27 1
     4    2    3 ar
     5    2   28 1
     6    3    4 ar
     7    3   29 1
     8    4   26 1
     9    4    5 ar
    10    5    6 ar
    11    5    7 1
    12    6   30 1
    13    7    8 2
    14    7   25 1
    15    8   12 1
    16    8    9 1
    17    9   10 1
    18    9   31 1
    19   10   11 2
    20   11   12 1
    21   11   20 1
    22   12   13 1
    23   13   14 1
    24   13   32 1
    25   13   33 1
    26   14   15 1
    27   14   19 1
    28   14   16 1
    29   16   17 1
    30   16   34 1
    31   16   35 1
    32   17   18 1
    33   17   36 1
    34   17   37 1
    35   18   19 1
    36   18   38 1
    37   18   39 1
    38   20   21 1
    39   21   22 1
    40   21   40 1
    41   21   41 1
    42   22   23 2
    43   22   24 am
    44   24   42 1
    45   24   43 1
    46   25   26 2
    47   25   44 1
@<TRIPOS>MOLECULE
ZINC66831138
   55    57     0     0     0
SMALL
USER_CHARGES

@<TRIPOS>ATOM
      1 C1         -0.0187    1.5258    0.0104 C.3       1 <0>        -0.1481
      2 C2          0.0021   -0.0041    0.0020 C.3       1 <0>        -0.0953
      3 C3          0.7182   -0.4975   -1.2568 C.3       1 <0>        -0.1092
      4 C4          0.7390   -2.0273   -1.2652 C.3       1 <0>        -0.1333
      5 C5          1.4790   -2.5342   -0.0257 C.3       1 <0>         0.1642
      6 C6          0.7628   -2.0407    1.2331 C.3       1 <0>        -0.1338
      7 C7          0.7421   -0.5109    1.2415 C.3       1 <0>        -0.1092
      8 N1          1.4988   -3.9990   -0.0337 N.am      1 <0>        -0.6106
      9 C8          2.7216   -4.8105   -0.0440 C.3       1 <0>         0.1165
     10 C9          2.2798   -6.2270    0.3861 C.3       1 <0>        -0.1165
     11 H1          2.8401   -6.9909   -0.1530 H         1 <0>         0.1341
     12 C10         0.7913   -6.2336   -0.0324 C.3       1 <0>        -0.1497
     13 C11         0.3995   -4.7725   -0.0269 C.2       1 <0>         0.5166
     14 O1         -0.7407   -4.3591   -0.0200 O.2       1 <0>        -0.5198
     15 C12         2.4229   -6.4076    1.8754 C.2       1 <0>         0.5226
     16 O2          2.8404   -5.4972    2.5593 O.2       1 <0>        -0.5160
     17 N2          2.0870   -7.5808    2.4473 N.am      1 <0>        -0.5277
     18 N3          2.2200   -7.7487    3.8318 N.am      1 <0>        -0.5325
     19 C13         1.8840   -8.9220    4.4037 C.2       1 <0>         0.7129
     20 O3          1.9995   -9.0677    5.6053 O.2       1 <0>        -0.5652
     21 N4          1.4201   -9.9337    3.6437 N.am      1 <0>        -0.7369
     22 C14         1.0549  -11.2090    4.2653 C.3       1 <0>         0.1553
     23 C15         2.2908  -12.1285    4.3505 C.3       1 <0>        -0.1363
     24 C16         1.7300  -13.5453    4.0726 C.3       1 <0>        -0.1256
     25 C17         0.6635  -13.2826    2.9805 C.3       1 <0>        -0.1247
     26 C18         0.0203  -11.9429    3.3943 C.3       1 <0>        -0.1321
     27 H2          1.0039    1.9031    0.0027 H         1 <0>         0.0543
     28 H3         -0.5459    1.8868   -0.8726 H         1 <0>         0.0546
     29 H4         -0.5289    1.8773    0.9072 H         1 <0>         0.0546
     30 H5         -1.0205   -0.3814    0.0098 H         1 <0>         0.0716
     31 H6          0.1910   -0.1364   -2.1398 H         1 <0>         0.0663
     32 H7          1.7408   -0.1202   -1.2645 H         1 <0>         0.0629
     33 H8         -0.2836   -2.4046   -1.2575 H         1 <0>         0.0789
     34 H9          1.2492   -2.3788   -2.1620 H         1 <0>         0.0630
     35 H10         2.5015   -2.1569   -0.0334 H         1 <0>         0.0884
     36 H11        -0.2598   -2.4180    1.2409 H         1 <0>         0.0768
     37 H12         1.2900   -2.4018    2.1162 H         1 <0>         0.0656
     38 H13         1.7647   -0.1336    1.2338 H         1 <0>         0.0629
     39 H14         0.2319   -0.1594    2.1383 H         1 <0>         0.0658
     40 H15         3.1486   -4.8367   -1.0465 H         1 <0>         0.0874
     41 H16         3.4462   -4.4099    0.6650 H         1 <0>         0.0991
     42 H17         0.6772   -6.6594   -1.0293 H         1 <0>         0.1229
     43 H18         0.1941   -6.7886    0.6911 H         1 <0>         0.1044
     44 H19         1.7531   -8.3090    1.9003 H         1 <0>         0.4198
     45 H20         2.5539   -7.0206    4.3788 H         1 <0>         0.4440
     46 H21         1.3280   -9.8175    2.6851 H         1 <0>         0.3894
     47 H22         0.6484  -11.0356    5.2617 H         1 <0>         0.0962
     48 H23         3.0241  -11.8530    3.5926 H         1 <0>         0.0697
     49 H24         2.7332  -12.0817    5.3456 H         1 <0>         0.0734
     50 H25         2.5132  -14.2039    3.6972 H         1 <0>         0.0703
     51 H26         1.2705  -13.9616    4.9690 H         1 <0>         0.0712
     52 H27         1.1340  -13.1935    2.0013 H         1 <0>         0.0672
     53 H28        -0.0816  -14.0781    2.9757 H         1 <0>         0.0704
     54 H29        -0.8881  -12.1263    3.9681 H         1 <0>         0.0786
     55 H30        -0.2101  -11.3501    2.5090 H         1 <0>         0.0705
@<TRIPOS>BOND
     1    1    2 1
     2    1   27 1
     3    1   28 1
     4    1   29 1
     5    2    7 1
     6    2    3 1
     7    2   30 1
     8    3    4 1
     9    3   31 1
    10    3   32 1
    11    4    5 1
    12    4   33 1
    13    4   34 1
    14    5    6 1
    15    5    8 1
    16    5   35 1
    17    6    7 1
    18    6   36 1
    19    6   37 1
    20    7   38 1
    21    7   39 1
    22    8   13 am
    23    8    9 1
    24    9   10 1
    25    9   40 1
    26    9   41 1
    27   10   11 1
    28   10   12 1
    29   10   15 1
    30   12   13 1
    31   12   42 1
    32   12   43 1
    33   13   14 2
    34   15   16 2
    35   15   17 am
    36   17   18 1
    37   17   44 1
    38   18   19 am
    39   18   45 1
    40   19   20 2
    41   19   21 am
    42   21   22 1
    43   21   46 1
    44   22   26 1
    45   22   23 1
    46   22   47 1
    47   23   24 1
    48   23   48 1
    49   23   49 1
    50   24   25 1
    51   24   50 1
    52   24   51 1
    53   25   26 1
    54   25   52 1
    55   25   53 1
    56   26   54 1
    57   26   55 1
@<TRIPOS>MOLECULE
ZINC08929284
   46    49     0     0     0
SMALL
USER_CHARGES
(2-bromophenyl)carbamoylmethyl 4-(1,3-dioxoisoindolin-2-yl)benzoate
@<TRIPOS>ATOM
      1 C1          2.3918    1.4114    0.0522 C.ar      1 <0>        -0.0908
      2 C2          1.1837    2.0828    0.0767 C.ar      1 <0>        -0.0909
      3 C3         -0.0109    1.3798    0.0848 C.ar      1 <0>        -0.0386
      4 C4          0.0073   -0.0057    0.0681 C.ar      1 <0>        -0.1397
      5 C5          1.2394   -0.6905    0.0430 C.ar      1 <0>        -0.1395
      6 C6          2.4256    0.0258    0.0353 C.ar      1 <0>        -0.0386
      7 C7          0.9020   -2.1293    0.0306 C.2       1 <0>         0.5759
      8 O1          1.7002   -3.0444    0.0092 O.2       1 <0>        -0.4411
      9 N1         -0.4371   -2.2558    0.0475 N.am      1 <0>        -0.5219
     10 C8         -1.0367   -1.0518    0.0700 C.2       1 <0>         0.5762
     11 O2         -2.2353   -0.8571    0.0891 O.2       1 <0>        -0.4420
     12 C9         -1.1158   -3.4767    0.0419 C.ar      1 <0>         0.1672
     13 C10        -0.3993   -4.6686    0.0117 C.ar      1 <0>        -0.1546
     14 C11        -1.0645   -5.8738    0.0119 C.ar      1 <0>        -0.0336
     15 C12        -2.4621   -5.8987    0.0303 C.ar      1 <0>        -0.1385
     16 C13        -3.1788   -4.6988    0.0549 C.ar      1 <0>        -0.0272
     17 C14        -2.5065   -3.4974    0.0608 C.ar      1 <0>        -0.1537
     18 C15        -3.1787   -7.1878    0.0235 C.2       1 <0>         0.5163
     19 O3         -4.3935   -7.2077    0.0391 O.2       1 <0>        -0.5000
     20 O4         -2.4862   -8.3434   -0.0002 O.3       1 <0>        -0.3274
     21 C16        -3.2571   -9.5739   -0.0056 C.3       1 <0>         0.0515
     22 C17        -2.3199  -10.7537   -0.0328 C.2       1 <0>         0.5198
     23 O5         -1.1203  -10.5752   -0.0463 O.2       1 <0>        -0.4897
     24 N2         -2.8148  -12.0073   -0.0421 N.am      1 <0>        -0.6691
     25 C18        -1.9491  -13.1005   -0.1622 C.ar      1 <0>         0.1728
     26 C19        -0.6883  -13.0567    0.4181 C.ar      1 <0>        -0.1150
     27 C20         0.1622  -14.1386    0.3011 C.ar      1 <0>        -0.0839
     28 C21        -0.2367  -15.2615   -0.4007 C.ar      1 <0>        -0.1256
     29 C22        -1.4894  -15.3070   -0.9840 C.ar      1 <0>        -0.0723
     30 C23        -2.3471  -14.2296   -0.8671 C.ar      1 <0>        -0.1196
     31 Br1        -4.0599  -14.2920   -1.6661 Br        1 <0>        -0.0428
     32 H1          3.3158    1.9704    0.0458 H         1 <0>         0.1469
     33 H2          1.1705    3.1626    0.0897 H         1 <0>         0.1469
     34 H3         -0.9519    1.9096    0.0995 H         1 <0>         0.1465
     35 H4          3.3724   -0.4934    0.0158 H         1 <0>         0.1466
     36 H5          0.6804   -4.6484   -0.0073 H         1 <0>         0.1657
     37 H6         -0.5075   -6.7989   -0.0071 H         1 <0>         0.1517
     38 H7         -4.2586   -4.7141    0.0688 H         1 <0>         0.1492
     39 H8         -3.0595   -2.5700    0.0797 H         1 <0>         0.1666
     40 H9         -3.8737   -9.6203    0.8920 H         1 <0>         0.1103
     41 H10        -3.8970   -9.5978   -0.8877 H         1 <0>         0.1110
     42 H11        -3.7709  -12.1519    0.0344 H         1 <0>         0.4162
     43 H12        -0.3744  -12.1789    0.9632 H         1 <0>         0.1494
     44 H13         1.1417  -14.1060    0.7549 H         1 <0>         0.1356
     45 H14         0.4319  -16.1045   -0.4937 H         1 <0>         0.1353
     46 H15        -1.7979  -16.1852   -1.5317 H         1 <0>         0.1383
@<TRIPOS>BOND
     1    1    6 ar
     2    1    2 ar
     3    1   32 1
     4    2    3 ar
     5    2   33 1
     6    3    4 ar
     7    3   34 1
     8    4   10 1
     9    4    5 ar
    10    5    6 ar
    11    5    7 1
    12    6   35 1
    13    7    8 2
    14    7    9 am
    15    9   10 am
    16    9   12 1
    17   10   11 2
    18   12   17 ar
    19   12   13 ar
    20   13   14 ar
    21   13   36 1
    22   14   15 ar
    23   14   37 1
    24   15   16 ar
    25   15   18 1
    26   16   17 ar
    27   16   38 1
    28   17   39 1
    29   18   19 2
    30   18   20 1
    31   20   21 1
    32   21   22 1
    33   21   40 1
    34   21   41 1
    35   22   23 2
    36   22   24 am
    37   24   25 1
    38   24   42 1
    39   25   30 ar
    40   25   26 ar
    41   26   27 ar
    42   26   43 1
    43   27   28 ar
    44   27   44 1
    45   28   29 ar
    46   28   45 1
    47   29   30 ar
    48   29   46 1
    49   30   31 1
@<TRIPOS>MOLECULE
ZINC11198030
   62    66     0     0     0
SMALL
USER_CHARGES
2-(3,5-dimethyl-1-phenyl-pyrazol-4-yl)sulfanyl-N-[4-(7,9,10-triazabicyclo[5.3.0]deca-8,10-dien-8-yl)phenyl]-acetamide
@<TRIPOS>ATOM
      1 C1          1.6974   -2.2645   -0.4717 C.3       1 <0>        -0.0813
      2 C2          1.2619   -0.8490   -0.1927 C.2       1 <0>         0.1229
      3 C3          2.1141    0.2495   -0.0018 C.2       1 <0>        -0.2852
      4 C4          1.3405    1.3421    0.2237 C.2       1 <0>         0.1518
      5 N1          0.0396    0.9404    0.1756 N.pl3     1 <0>        -0.3218
      6 N2          0.0248   -0.4355   -0.0867 N.2       1 <0>        -0.2855
      7 C5         -1.0840    1.7593    0.3512 C.ar      1 <0>         0.1465
      8 C6         -1.0438    2.8107    1.2572 C.ar      1 <0>        -0.1306
      9 C7         -2.1509    3.6195    1.4239 C.ar      1 <0>        -0.0977
     10 C8         -3.3024    3.3761    0.6979 C.ar      1 <0>        -0.1173
     11 C9         -3.3474    2.3262   -0.2010 C.ar      1 <0>        -0.0996
     12 C10        -2.2417    1.5174   -0.3763 C.ar      1 <0>        -0.1078
     13 C11         1.8313    2.7437    0.4799 C.3       1 <0>        -0.1050
     14 S1          3.8752    0.2165   -0.0468 S.3       1 <0>        -0.0028
     15 C12         4.2758    0.5374   -1.7866 C.3       1 <0>        -0.1597
     16 C13         5.7721    0.5362   -1.9660 C.2       1 <0>         0.5352
     17 O1          6.4969    0.3383   -1.0139 O.2       1 <0>        -0.4935
     18 N3          6.3049    0.7550   -3.1845 N.am      1 <0>        -0.6679
     19 C14         7.6905    0.8627   -3.3323 C.ar      1 <0>         0.1634
     20 C15         8.4696    1.3013   -2.2677 C.ar      1 <0>        -0.1247
     21 C16         9.8366    1.4031   -2.4085 C.ar      1 <0>        -0.0918
     22 C17        10.4378    1.0758   -3.6251 C.ar      1 <0>        -0.0340
     23 C18         9.6522    0.6411   -4.6939 C.ar      1 <0>        -0.0509
     24 C19         8.2862    0.5364   -4.5452 C.ar      1 <0>        -0.1445
     25 C20        11.9039    1.1888   -3.7811 C.2       1 <0>         0.2177
     26 N4         12.6427    0.6064   -4.7022 N.2       1 <0>        -0.2806
     27 N5         13.8769    0.9343   -4.5413 N.2       1 <0>        -0.2893
     28 C21        13.9953    1.7318   -3.5172 C.2       1 <0>         0.1862
     29 N6         12.7527    1.9121   -2.9945 N.pl3     1 <0>        -0.4673
     30 C22        12.4099    2.7111   -1.8182 C.3       1 <0>         0.0962
     31 C23        13.4313    3.8408   -1.6577 C.3       1 <0>        -0.1414
     32 C24        14.6017    3.3601   -0.8014 C.3       1 <0>        -0.1258
     33 C25        15.3123    2.1890   -1.4727 C.3       1 <0>        -0.1248
     34 C26        15.2614    2.3598   -2.9939 C.3       1 <0>        -0.0371
     35 H1          1.7805   -2.4136   -1.5482 H         1 <0>         0.0808
     36 H2          2.6652   -2.4457   -0.0040 H         1 <0>         0.0921
     37 H3          0.9616   -2.9579   -0.0645 H         1 <0>         0.0786
     38 H4         -0.1464    2.9984    1.8280 H         1 <0>         0.1329
     39 H5         -2.1188    4.4402    2.1252 H         1 <0>         0.1356
     40 H6         -4.1682    4.0074    0.8330 H         1 <0>         0.1320
     41 H7         -4.2483    2.1384   -0.7663 H         1 <0>         0.1345
     42 H8         -2.2773    0.6978   -1.0787 H         1 <0>         0.1335
     43 H9          1.9717    2.8894    1.5510 H         1 <0>         0.0943
     44 H10         2.7799    2.8963   -0.0349 H         1 <0>         0.0958
     45 H11         1.0974    3.4592    0.1090 H         1 <0>         0.0798
     46 H12         3.8345   -0.2399   -2.4105 H         1 <0>         0.1140
     47 H13         3.8757    1.5084   -2.0785 H         1 <0>         0.1123
     48 H14         5.7267    0.8377   -3.9590 H         1 <0>         0.4151
     49 H15         8.0034    1.5583   -1.3280 H         1 <0>         0.1502
     50 H16        10.4418    1.7397   -1.5797 H         1 <0>         0.1302
     51 H17        10.1144    0.3874   -5.6365 H         1 <0>         0.1418
     52 H18         7.6778    0.2001   -5.3718 H         1 <0>         0.1356
     53 H19        11.4142    3.1362   -1.9447 H         1 <0>         0.1019
     54 H20        12.4255    2.0779   -0.9311 H         1 <0>         0.0928
     55 H21        12.9553    4.6942   -1.1749 H         1 <0>         0.0908
     56 H22        13.7988    4.1384   -2.6398 H         1 <0>         0.0820
     57 H23        14.2282    3.0435    0.1724 H         1 <0>         0.0711
     58 H24        15.3080    4.1792   -0.6658 H         1 <0>         0.0753
     59 H25        14.8185    1.2577   -1.1954 H         1 <0>         0.0653
     60 H26        16.3516    2.1594   -1.1455 H         1 <0>         0.0830
     61 H27        16.1246    1.8704   -3.4449 H         1 <0>         0.1024
     62 H28        15.2722    3.4208   -3.2435 H         1 <0>         0.0941
@<TRIPOS>BOND
     1    1    2 1
     2    1   35 1
     3    1   36 1
     4    1   37 1
     5    2    6 2
     6    2    3 1
     7    3    4 2
     8    3   14 1
     9    4    5 1
    10    4   13 1
    11    5    6 1
    12    5    7 1
    13    7   12 ar
    14    7    8 ar
    15    8    9 ar
    16    8   38 1
    17    9   10 ar
    18    9   39 1
    19   10   11 ar
    20   10   40 1
    21   11   12 ar
    22   11   41 1
    23   12   42 1
    24   13   43 1
    25   13   44 1
    26   13   45 1
    27   14   15 1
    28   15   16 1
    29   15   46 1
    30   15   47 1
    31   16   17 2
    32   16   18 am
    33   18   19 1
    34   18   48 1
    35   19   24 ar
    36   19   20 ar
    37   20   21 ar
    38   20   49 1
    39   21   22 ar
    40   21   50 1
    41   22   23 ar
    42   22   25 1
    43   23   24 ar
    44   23   51 1
    45   24   52 1
    46   25   29 1
    47   25   26 2
    48   26   27 1
    49   27   28 2
    50   28   34 1
    51   28   29 1
    52   29   30 1
    53   30   31 1
    54   30   53 1
    55   30   54 1
    56   31   32 1
    57   31   55 1
    58   31   56 1
    59   32   33 1
    60   32   57 1
    61   32   58 1
    62   33   34 1
    63   33   59 1
    64   33   60 1
    65   34   61 1
    66   34   62 1
@<TRIPOS>MOLECULE
ZINC20532544
   66    68     0     0     0
SMALL
USER_CHARGES
(2S)-1-(4-chlorophenyl)-N-cyclooctyl-2-methyl-6-oxo-4-propylsulfonyl-piperazine-2-carboxamide
@<TRIPOS>ATOM
      1 C1          5.1202    9.7990   -1.5680 C.3       1 <0>        -0.1469
      2 C2          4.8122    8.3407   -1.2225 C.3       1 <0>        -0.1188
      3 C3          4.5759    8.2124    0.2837 C.3       1 <0>        -0.6325
      4 S1          4.2107    6.4834    0.6934 S.o2      1 <0>         2.5931
      5 O1          5.3629    5.6778    0.4873 O.2       1 <0>        -0.9498
      6 O2          2.9551    6.1054    0.1459 O.2       1 <0>        -0.9070
      7 N1          3.9768    6.4748    2.3327 N.pl3     1 <0>        -1.0065
      8 C4          5.0931    6.2528    3.2637 C.3       1 <0>         0.1026
      9 C5          4.6413    5.3173    4.3518 C.2       1 <0>         0.5223
     10 O3          5.4793    4.8300    5.0808 O.2       1 <0>        -0.5135
     11 N2          3.3621    4.9998    4.5514 N.am      1 <0>        -0.5528
     12 C6          2.2593    5.4341    3.7049 C.3       1 <0>         0.1435
     13 C7          2.6421    6.6886    2.9174 C.3       1 <0>         0.1224
     14 C8          1.0428    5.7409    4.5807 C.3       1 <0>        -0.1667
     15 C9          1.9100    4.3302    2.7402 C.2       1 <0>         0.4947
     16 O4          1.5316    4.6009    1.6202 O.2       1 <0>        -0.4930
     17 N3          2.0181    3.0422    3.1222 N.am      1 <0>        -0.7421
     18 C10         1.6785    1.9691    2.1844 C.3       1 <0>         0.1384
     19 C11         2.8912    1.6574    1.3054 C.3       1 <0>        -0.1349
     20 C12         2.4845    1.7225   -0.1680 C.3       1 <0>        -0.1174
     21 C13         1.1440    1.0098   -0.3588 C.3       1 <0>        -0.1382
     22 C14         1.3611   -0.5043   -0.3193 C.3       1 <0>        -0.1199
     23 C15         1.5756   -0.9507    1.1283 C.3       1 <0>        -0.1309
     24 C16         0.5557   -0.2571    2.0333 C.3       1 <0>        -0.1242
     25 C17         1.2796    0.7158    2.9662 C.3       1 <0>        -0.1263
     26 C18         3.0579    4.1916    5.6529 C.ar      1 <0>         0.1324
     27 C19         2.3425    4.7139    6.7224 C.ar      1 <0>        -0.1041
     28 C20         2.0399    3.9131    7.8061 C.ar      1 <0>        -0.0948
     29 C21         2.4572    2.5939    7.8311 C.ar      1 <0>        -0.0303
     30 C22         3.1747    2.0724    6.7690 C.ar      1 <0>        -0.0907
     31 C23         3.4758    2.8676    5.6807 C.ar      1 <0>        -0.1124
     32 Cl1         2.0804    1.5917    9.1976 Cl        1 <0>        -0.0579
     33 H1          5.2901    9.8912   -2.6509 H         1 <0>         0.0649
     34 H2          6.0218   10.1215   -1.0266 H         1 <0>         0.0595
     35 H3          4.2701   10.4326   -1.2749 H         1 <0>         0.0601
     36 H4          3.9106    8.0182   -1.7639 H         1 <0>         0.0811
     37 H5          5.6622    7.7070   -1.5156 H         1 <0>         0.0790
     38 H6          5.4775    8.5349    0.8251 H         1 <0>         0.1318
     39 H7          3.7259    8.8461    0.5768 H         1 <0>         0.1342
     40 H8          5.9409    5.8097    2.7206 H         1 <0>         0.1365
     41 H9          5.4007    7.2132    3.7030 H         1 <0>         0.1145
     42 H10         2.6704    7.5612    3.5865 H         1 <0>         0.0964
     43 H11         1.9136    6.8671    2.1128 H         1 <0>         0.1329
     44 H12         0.2071    6.0694    3.9453 H         1 <0>         0.0903
     45 H13         1.2966    6.5387    5.2943 H         1 <0>         0.0842
     46 H14         0.7502    4.8352    5.1321 H         1 <0>         0.0799
     47 H15         2.3613    2.7967    4.1380 H         1 <0>         0.4089
     48 H16         0.8381    2.3275    1.5719 H         1 <0>         0.1001
     49 H17         3.6840    2.3948    1.4995 H         1 <0>         0.0595
     50 H18         3.2635    0.6489    1.5385 H         1 <0>         0.0756
     51 H19         2.3878    2.7742   -0.4755 H         1 <0>         0.0693
     52 H20         3.2525    1.2300   -0.7825 H         1 <0>         0.0604
     53 H21         0.4551    1.3026    0.4472 H         1 <0>         0.0815
     54 H22         0.7131    1.2932   -1.3304 H         1 <0>         0.0596
     55 H23         0.4774   -1.0123   -0.7327 H         1 <0>         0.0592
     56 H24         2.2466   -0.7635   -0.9182 H         1 <0>         0.0616
     57 H25         1.4463   -2.0408    1.1988 H         1 <0>         0.0596
     58 H26         2.5928   -0.6807    1.4484 H         1 <0>         0.0729
     59 H27        -0.1663    0.2965    1.4151 H         1 <0>         0.0769
     60 H28         0.0236   -1.0114    2.6316 H         1 <0>         0.0648
     61 H29         2.1816    0.2336    3.3711 H         1 <0>         0.0689
     62 H30         0.6114    0.9969    3.7935 H         1 <0>         0.0666
     63 H31         2.0202    5.7446    6.7051 H         1 <0>         0.1445
     64 H32         1.4807    4.3179    8.6367 H         1 <0>         0.1435
     65 H33         3.4999    1.0428    6.7913 H         1 <0>         0.1434
     66 H34         4.0356    2.4601    4.8519 H         1 <0>         0.1398
@<TRIPOS>BOND
     1    1    2 1
     2    1   33 1
     3    1   34 1
     4    1   35 1
     5    2    3 1
     6    2   36 1
     7    2   37 1
     8    3    4 1
     9    3   38 1
    10    3   39 1
    11    4    5 2
    12    4    6 2
    13    4    7 1
    14    7   13 1
    15    7    8 1
    16    8    9 1
    17    8   40 1
    18    8   41 1
    19    9   10 2
    20    9   11 am
    21   11   12 1
    22   11   26 1
    23   12   13 1
    24   12   14 1
    25   12   15 1
    26   13   42 1
    27   13   43 1
    28   14   44 1
    29   14   45 1
    30   14   46 1
    31   15   16 2
    32   15   17 am
    33   17   18 1
    34   17   47 1
    35   18   25 1
    36   18   19 1
    37   18   48 1
    38   19   20 1
    39   19   49 1
    40   19   50 1
    41   20   21 1
    42   20   51 1
    43   20   52 1
    44   21   22 1
    45   21   53 1
    46   21   54 1
    47   22   23 1
    48   22   55 1
    49   22   56 1
    50   23   24 1
    51   23   57 1
    52   23   58 1
    53   24   25 1
    54   24   59 1
    55   24   60 1
    56   25   61 1
    57   25   62 1
    58   26   31 ar
    59   26   27 ar
    60   27   28 ar
    61   27   63 1
    62   28   29 ar
    63   28   64 1
    64   29   30 ar
    65   29   32 1
    66   30   31 ar
    67   30   65 1
    68   31   66 1
@<TRIPOS>MOLECULE
ZINC35837118
   65    69     0     0     0
SMALL
USER_CHARGES

@<TRIPOS>ATOM
      1 C1         -2.6125   -6.7148    4.0985 C.3       1 <0>        -0.1169
      2 C2         -2.1556   -5.2869    4.2518 C.ar      1 <0>        -0.0831
      3 C3         -2.6804   -4.4974    5.2582 C.ar      1 <0>        -0.1064
      4 C4         -2.2614   -3.1879    5.3988 C.ar      1 <0>        -0.1079
      5 C5         -1.3172   -2.6675    4.5333 C.ar      1 <0>        -0.1270
      6 C6         -0.7918   -3.4570    3.5278 C.ar      1 <0>        -0.1207
      7 C7         -1.2078   -4.7682    3.3899 C.ar      1 <0>        -0.0960
      8 C8          0.2371   -2.8896    2.5842 C.3       1 <0>         0.1347
      9 N1          1.5792   -3.2267    3.0651 N.pl3     1 <0>        -0.4201
     10 C9          2.3261   -4.2859    2.6533 C.2       1 <0>         0.0539
     11 C10         3.5097   -4.2716    3.3202 C.2       1 <0>         0.0820
     12 C11         3.5031   -3.1643    4.1796 C.2       1 <0>        -0.0663
     13 C12         2.2956   -2.5207    4.0039 C.2       1 <0>        -0.0587
     14 C13         1.8540   -1.3052    4.6952 C.2       1 <0>         0.5930
     15 O1          2.5454   -0.8174    5.5700 O.2       1 <0>        -0.5206
     16 N2          0.6825   -0.7282    4.3619 N.am      1 <0>        -0.7451
     17 C14         0.2974    0.5498    4.9657 C.3       1 <0>         0.1598
     18 C15        -1.0963    0.9146    4.5235 C.ar      1 <0>        -0.1076
     19 C16        -1.2894    1.5686    3.3208 C.ar      1 <0>        -0.0910
     20 C17        -2.5660    1.9048    2.9106 C.ar      1 <0>        -0.1003
     21 C18        -3.6557    1.5872    3.7050 C.ar      1 <0>         0.0434
     22 C19        -3.4612    0.9285    4.9166 C.ar      1 <0>         0.0350
     23 C20        -2.1794    0.5894    5.3185 C.ar      1 <0>        -0.0824
     24 O2         -4.6766    0.7312    5.5059 O.3       1 <0>        -0.3057
     25 C21        -5.5779    1.6356    4.8403 C.3       1 <0>         0.2124
     26 O3         -4.9929    1.8026    3.5353 O.3       1 <0>        -0.3065
     27 C22         4.6097   -2.7510    5.1155 C.3       1 <0>        -0.0844
     28 N3          4.5552   -5.2024    3.1746 N.pl3     1 <0>        -0.6464
     29 C23         4.6093   -6.4167    4.0040 C.3       1 <0>         0.1127
     30 C24         4.8072   -7.6244    3.0807 C.3       1 <0>         0.0461
     31 O4          5.9305   -7.3867    2.2290 O.3       1 <0>        -0.3813
     32 C25         5.7746   -6.2675    1.3533 C.3       1 <0>         0.0458
     33 C26         5.6233   -4.9931    2.1842 C.3       1 <0>         0.1136
     34 C27         1.9092   -5.3077    1.6270 C.3       1 <0>        -0.0870
     35 H1         -1.9237   -7.3752    4.6254 H         1 <0>         0.0727
     36 H2         -3.6126   -6.8233    4.5182 H         1 <0>         0.0684
     37 H3         -2.6315   -6.9786    3.0411 H         1 <0>         0.0681
     38 H4         -3.4181   -4.9039    5.9343 H         1 <0>         0.1251
     39 H5         -2.6719   -2.5710    6.1845 H         1 <0>         0.1244
     40 H6         -0.9903   -1.6440    4.6428 H         1 <0>         0.1383
     41 H7         -0.7946   -5.3863    2.6065 H         1 <0>         0.1230
     42 H8          0.0905   -3.3121    1.5901 H         1 <0>         0.1112
     43 H9          0.1292   -1.8059    2.5379 H         1 <0>         0.0973
     44 H10         0.0943   -1.1592    3.7221 H         1 <0>         0.4010
     45 H11         0.3223    0.4607    6.0517 H         1 <0>         0.0871
     46 H12         0.9940    1.3259    4.6487 H         1 <0>         0.0858
     47 H13        -0.4410    1.8176    2.7006 H         1 <0>         0.1421
     48 H14        -2.7139    2.4157    1.9707 H         1 <0>         0.1404
     49 H15        -2.0260    0.0746    6.2554 H         1 <0>         0.1381
     50 H16        -6.5722    1.1960    4.7609 H         1 <0>         0.1346
     51 H17        -5.6206    2.5895    5.3659 H         1 <0>         0.0879
     52 H18         5.2884   -2.0726    4.5985 H         1 <0>         0.0637
     53 H19         4.1829   -2.2470    5.9827 H         1 <0>         0.0783
     54 H20         5.1582   -3.6345    5.4422 H         1 <0>         0.0611
     55 H21         5.4437   -6.3477    4.7020 H         1 <0>         0.0570
     56 H22         3.6760   -6.5259    4.5563 H         1 <0>         0.0761
     57 H23         4.9877   -8.5160    3.6811 H         1 <0>         0.0971
     58 H24         3.9137   -7.7685    2.4732 H         1 <0>         0.0496
     59 H25         6.6512   -6.1829    0.7110 H         1 <0>         0.0974
     60 H26         4.8846   -6.4066    0.7395 H         1 <0>         0.0498
     61 H27         5.3611   -4.1600    1.5321 H         1 <0>         0.0763
     62 H28         6.5614   -4.7783    2.6959 H         1 <0>         0.0565
     63 H29         2.2201   -4.9755    0.6365 H         1 <0>         0.0742
     64 H30         2.3805   -6.2639    1.8541 H         1 <0>         0.0821
     65 H31         0.8255   -5.4226    1.6481 H         1 <0>         0.0639
@<TRIPOS>BOND
     1    1    2 1
     2    1   35 1
     3    1   36 1
     4    1   37 1
     5    2    7 ar
     6    2    3 ar
     7    3    4 ar
     8    3   38 1
     9    4    5 ar
    10    4   39 1
    11    5    6 ar
    12    5   40 1
    13    6    7 ar
    14    6    8 1
    15    7   41 1
    16    8    9 1
    17    8   42 1
    18    8   43 1
    19    9   13 1
    20    9   10 1
    21   10   11 2
    22   10   34 1
    23   11   12 1
    24   11   28 1
    25   12   13 2
    26   12   27 1
    27   13   14 1
    28   14   15 2
    29   14   16 am
    30   16   17 1
    31   16   44 1
    32   17   18 1
    33   17   45 1
    34   17   46 1
    35   18   23 ar
    36   18   19 ar
    37   19   20 ar
    38   19   47 1
    39   20   21 ar
    40   20   48 1
    41   21   26 1
    42   21   22 ar
    43   22   23 ar
    44   22   24 1
    45   23   49 1
    46   24   25 1
    47   25   26 1
    48   25   50 1
    49   25   51 1
    50   27   52 1
    51   27   53 1
    52   27   54 1
    53   28   33 1
    54   28   29 1
    55   29   30 1
    56   29   55 1
    57   29   56 1
    58   30   31 1
    59   30   57 1
    60   30   58 1
    61   31   32 1
    62   32   33 1
    63   32   59 1
    64   32   60 1
    65   33   61 1
    66   33   62 1
    67   34   63 1
    68   34   64 1
    69   34   65 1
@<TRIPOS>MOLECULE
ZINC44910733
   69    72     0     0     0
SMALL
USER_CHARGES

@<TRIPOS>ATOM
      1 C1         -0.9640    2.5578   -0.8140 C.3       1 <0>        -0.1410
      2 C2         -1.0838    1.0457   -0.6132 C.3       1 <0>        -0.0277
      3 C3         -0.6327    0.6820    0.8028 C.3       1 <0>        -0.1430
      4 C4         -2.5398    0.6189   -0.8101 C.3       1 <0>        -0.1459
      5 C5         -0.2120    0.3351   -1.6162 C.ar      1 <0>        -0.0605
      6 C6         -0.7771   -0.5402   -2.5250 C.ar      1 <0>        -0.1061
      7 C7          0.0160   -1.1942   -3.4493 C.ar      1 <0>        -0.1083
      8 C8          1.3850   -0.9748   -3.4684 C.ar      1 <0>         0.0952
      9 C9          1.9522   -0.0948   -2.5506 C.ar      1 <0>         0.1017
     10 C10         1.1517    0.5636   -1.6306 C.ar      1 <0>        -0.1295
     11 N1          3.3388    0.1247   -2.5612 N.pl3     1 <0>        -0.9394
     12 C11         4.0967   -0.3411   -3.7352 C.3       1 <0>         0.0807
     13 C12         3.5568   -1.7270   -4.1159 C.3       1 <0>         0.0668
     14 H1          3.7183   -2.4211   -3.2911 H         1 <0>         0.1065
     15 O1          2.1568   -1.6186   -4.3837 O.3       1 <0>        -0.2797
     16 C13         4.2717   -2.2275   -5.3445 C.2       1 <0>         0.5237
     17 O2          3.6584   -2.3933   -6.3776 O.2       1 <0>        -0.5054
     18 N2          5.5926   -2.4909   -5.2953 N.am      1 <0>        -0.7206
     19 C14         6.2875   -2.9775   -6.4896 C.3       1 <0>         0.1723
     20 C15         7.7445   -3.1925   -6.1705 C.ar      1 <0>        -0.1780
     21 C16         8.6478   -2.1594   -6.3412 C.ar      1 <0>        -0.0466
     22 C17         9.9838   -2.3531   -6.0496 C.ar      1 <0>        -0.2036
     23 C18        10.4198   -3.5872   -5.5844 C.ar      1 <0>         0.2333
     24 C19         9.5097   -4.6228   -5.4141 C.ar      1 <0>        -0.2033
     25 C20         8.1742   -4.4206   -5.7022 C.ar      1 <0>        -0.0465
     26 N3         11.7703   -3.7866   -5.2891 N.pl3     1 <0>        -0.6258
     27 C21        12.2680   -5.1203   -4.9252 C.3       1 <0>         0.1185
     28 C22        13.4419   -5.4758   -5.8430 C.3       1 <0>        -0.1373
     29 C23        14.4964   -4.3692   -5.7677 C.3       1 <0>        -0.1200
     30 C24        13.8890   -3.0497   -6.2494 C.3       1 <0>        -0.1379
     31 C25        12.7213   -2.6679   -5.3422 C.3       1 <0>         0.1182
     32 S1          4.0962    0.8805   -1.2973 S.o2      1 <0>         2.6000
     33 O3          3.3602    0.4884   -0.1467 O.2       1 <0>        -0.9312
     34 O4          5.4667    0.5309   -1.4344 O.2       1 <0>        -0.9422
     35 C26         3.8691    2.6528   -1.6102 C.3       1 <0>        -0.6705
     36 H2          0.0733    2.8619   -0.6738 H         1 <0>         0.0536
     37 H3         -1.2854    2.8169   -1.8228 H         1 <0>         0.0586
     38 H4         -1.5946    3.0717   -0.0885 H         1 <0>         0.0618
     39 H5         -1.2633    1.1959    1.5283 H         1 <0>         0.0591
     40 H6         -0.7181   -0.3952    0.9459 H         1 <0>         0.0583
     41 H7          0.4046    0.9861    0.9431 H         1 <0>         0.0628
     42 H8         -2.8612    0.8780   -1.8189 H         1 <0>         0.0604
     43 H9         -2.6251   -0.4583   -0.6670 H         1 <0>         0.0609
     44 H10        -3.1704    1.1328   -0.0846 H         1 <0>         0.0603
     45 H11        -1.8430   -0.7142   -2.5124 H         1 <0>         0.1393
     46 H12        -0.4309   -1.8768   -4.1568 H         1 <0>         0.1394
     47 H13         1.5926    1.2509   -0.9238 H         1 <0>         0.1339
     48 H14         3.9557    0.3515   -4.5650 H         1 <0>         0.0987
     49 H15         5.1558   -0.4119   -3.4874 H         1 <0>         0.1246
     50 H16         6.0831   -2.3583   -4.4690 H         1 <0>         0.4043
     51 H17         5.8429   -3.9197   -6.8102 H         1 <0>         0.0768
     52 H18         6.1953   -2.2418   -7.2886 H         1 <0>         0.0771
     53 H19         8.3083   -1.2003   -6.7032 H         1 <0>         0.1227
     54 H20        10.6888   -1.5460   -6.1835 H         1 <0>         0.1245
     55 H21         9.8454   -5.5836   -5.0530 H         1 <0>         0.1242
     56 H22         7.4654   -5.2240   -5.5658 H         1 <0>         0.1227
     57 H23        12.6036   -5.1146   -3.8882 H         1 <0>         0.0630
     58 H24        11.4716   -5.8540   -5.0497 H         1 <0>         0.0837
     59 H25        13.8818   -6.4200   -5.5219 H         1 <0>         0.0742
     60 H26        13.0860   -5.5699   -6.8690 H         1 <0>         0.0666
     61 H27        14.8339   -4.2588   -4.7371 H         1 <0>         0.0637
     62 H28        15.3439   -4.6315   -6.4009 H         1 <0>         0.0653
     63 H29        14.6471   -2.2672   -6.2176 H         1 <0>         0.0743
     64 H30        13.5289   -3.1667   -7.2716 H         1 <0>         0.0665
     65 H31        12.2239   -1.7841   -5.7417 H         1 <0>         0.0840
     66 H32        13.0947   -2.4579   -4.3399 H         1 <0>         0.0629
     67 H33         2.8041    2.8833   -1.6382 H         1 <0>         0.1333
     68 H34         4.3442    3.2261   -0.8142 H         1 <0>         0.1378
     69 H35         4.3226    2.9139   -2.5664 H         1 <0>         0.1337
@<TRIPOS>BOND
     1    1    2 1
     2    1   36 1
     3    1   37 1
     4    1   38 1
     5    2    3 1
     6    2    4 1
     7    2    5 1
     8    3   39 1
     9    3   40 1
    10    3   41 1
    11    4   42 1
    12    4   43 1
    13    4   44 1
    14    5   10 ar
    15    5    6 ar
    16    6    7 ar
    17    6   45 1
    18    7    8 ar
    19    7   46 1
    20    8   15 1
    21    8    9 ar
    22    9   10 ar
    23    9   11 1
    24   10   47 1
    25   11   12 1
    26   11   32 1
    27   12   13 1
    28   12   48 1
    29   12   49 1
    30   13   14 1
    31   13   15 1
    32   13   16 1
    33   16   17 2
    34   16   18 am
    35   18   19 1
    36   18   50 1
    37   19   20 1
    38   19   51 1
    39   19   52 1
    40   20   25 ar
    41   20   21 ar
    42   21   22 ar
    43   21   53 1
    44   22   23 ar
    45   22   54 1
    46   23   24 ar
    47   23   26 1
    48   24   25 ar
    49   24   55 1
    50   25   56 1
    51   26   31 1
    52   26   27 1
    53   27   28 1
    54   27   57 1
    55   27   58 1
    56   28   29 1
    57   28   59 1
    58   28   60 1
    59   29   30 1
    60   29   61 1
    61   29   62 1
    62   30   31 1
    63   30   63 1
    64   30   64 1
    65   31   65 1
    66   31   66 1
    67   32   33 2
    68   32   34 2
    69   32   35 1
    70   35   67 1
    71   35   68 1
    72   35   69 1
@<TRIPOS>MOLECULE
ZINC02098058
   63    67     0     0     0
SMALL
USER_CHARGES
(1R)-2-[2-(3,4-dimethoxyphenyl)ethyl]-1-(3-hydroxyphenyl)-6,7-dimethyl-1H-chromeno[2,3-c]pyrrole-3,9-dione
@<TRIPOS>ATOM
      1 C1         -1.2940   -0.7730    0.0103 C.3       1 <0>        -0.1164
      2 C2          0.0021   -0.0041    0.0020 C.ar      1 <0>        -0.1126
      3 C3          1.2021   -0.6808   -0.0127 C.ar      1 <0>        -0.0229
      4 C4          2.3959    0.0381   -0.0203 C.ar      1 <0>        -0.2206
      5 C5          2.3811    1.4438   -0.0130 C.ar      1 <0>         0.1553
      6 C6          1.1570    2.1053    0.0023 C.ar      1 <0>        -0.1365
      7 C7         -0.0167    1.3835    0.0096 C.ar      1 <0>        -0.0157
      8 C8         -1.3371    2.1098    0.0198 C.3       1 <0>        -0.1248
      9 O1          3.5337    2.1377   -0.0203 O.3       1 <0>        -0.1991
     10 C9          4.7523    1.5626   -0.0347 C.2       1 <0>         0.1016
     11 C10         4.8934    0.2146   -0.0429 C.2       1 <0>        -0.2544
     12 C11         3.7051   -0.6435   -0.0365 C.2       1 <0>         0.4491
     13 O2          3.7936   -1.8586   -0.0434 O.2       1 <0>        -0.4387
     14 C12         6.3695   -0.0864   -0.0583 C.3       1 <0>         0.2309
     15 H1          6.6462   -0.6540    0.8301 H         1 <0>         0.1225
     16 N1          7.0478    1.2155   -0.0581 N.am      1 <0>        -0.5892
     17 C13         6.1051    2.1737   -0.0444 C.2       1 <0>         0.5747
     18 O3          6.3281    3.3680   -0.0408 O.2       1 <0>        -0.4824
     19 C14         8.4966    1.4323   -0.0707 C.3       1 <0>         0.1462
     20 C15         8.9873    1.5151   -1.5175 C.3       1 <0>        -0.1065
     21 C16        10.4777    1.7381   -1.5304 C.ar      1 <0>        -0.0813
     22 C17        10.9825    3.0251   -1.5344 C.ar      1 <0>        -0.1074
     23 C18        12.3489    3.2349   -1.5405 C.ar      1 <0>        -0.1696
     24 C19        13.2157    2.1540   -1.5541 C.ar      1 <0>         0.0998
     25 C20        12.7076    0.8586   -1.5559 C.ar      1 <0>         0.1012
     26 C21        11.3370    0.6553   -1.5440 C.ar      1 <0>        -0.1651
     27 O4         13.5543   -0.2056   -1.5688 O.3       1 <0>        -0.3057
     28 C22        12.9619   -1.5060   -1.5693 C.3       1 <0>         0.0263
     29 O5         14.5601    2.3587   -1.5662 O.3       1 <0>        -0.3068
     30 C23        15.0099    3.7150   -1.5636 C.3       1 <0>         0.0256
     31 C24         6.7288   -0.8587   -1.3015 C.ar      1 <0>        -0.0841
     32 C25         6.8656   -0.1991   -2.5092 C.ar      1 <0>        -0.1070
     33 C26         7.1951   -0.9047   -3.6514 C.ar      1 <0>        -0.1036
     34 C27         7.3886   -2.2713   -3.5889 C.ar      1 <0>        -0.1340
     35 C28         7.2524   -2.9352   -2.3786 C.ar      1 <0>         0.1082
     36 C29         6.9268   -2.2239   -1.2326 C.ar      1 <0>        -0.1123
     37 O6          7.4418   -4.2794   -2.3146 O.3       1 <0>        -0.4950
     38 H2         -1.6163   -0.9529   -1.0153 H         1 <0>         0.0759
     39 H3         -1.1475   -1.7265    0.5177 H         1 <0>         0.0718
     40 H4         -2.0556   -0.1957    0.5346 H         1 <0>         0.0743
     41 H5          1.2175   -1.7607   -0.0186 H         1 <0>         0.1457
     42 H6          1.1268    3.1849    0.0081 H         1 <0>         0.1479
     43 H7         -1.6506    2.2793    1.0499 H         1 <0>         0.0832
     44 H8         -1.2289    3.0675   -0.4893 H         1 <0>         0.0761
     45 H9         -2.0868    1.5079   -0.4937 H         1 <0>         0.0795
     46 H10         8.7291    2.3637    0.4457 H         1 <0>         0.0978
     47 H11         8.9924    0.6033    0.4343 H         1 <0>         0.0942
     48 H12         8.7548    0.5837   -2.0339 H         1 <0>         0.0913
     49 H13         8.4915    2.3441   -2.0225 H         1 <0>         0.0812
     50 H14        10.3079    3.8685   -1.5286 H         1 <0>         0.1291
     51 H15        12.7407    4.2414   -1.5395 H         1 <0>         0.1366
     52 H16        10.9400   -0.3491   -1.5457 H         1 <0>         0.1343
     53 H17        12.3520   -1.6278   -0.6742 H         1 <0>         0.0543
     54 H18        12.3353   -1.6195   -2.4540 H         1 <0>         0.0543
     55 H19        13.7464   -2.2626   -1.5802 H         1 <0>         0.1013
     56 H20        16.0997    3.7365   -1.5741 H         1 <0>         0.1015
     57 H21        14.6279    4.2262   -2.4472 H         1 <0>         0.0554
     58 H22        14.6453    4.2170   -0.6674 H         1 <0>         0.0556
     59 H23         6.7144    0.8691   -2.5602 H         1 <0>         0.1221
     60 H24         7.3010   -0.3873   -4.5935 H         1 <0>         0.1307
     61 H25         7.6460   -2.8221   -4.4815 H         1 <0>         0.1313
     62 H26         6.8242   -2.7379   -0.2883 H         1 <0>         0.1341
     63 H27         8.3545   -4.5396   -2.1289 H         1 <0>         0.3910
@<TRIPOS>BOND
     1    1    2 1
     2    1   38 1
     3    1   39 1
     4    1   40 1
     5    2    7 ar
     6    2    3 ar
     7    3    4 ar
     8    3   41 1
     9    4   12 1
    10    4    5 ar
    11    5    6 ar
    12    5    9 1
    13    6    7 ar
    14    6   42 1
    15    7    8 1
    16    8   43 1
    17    8   44 1
    18    8   45 1
    19    9   10 1
    20   10   17 1
    21   10   11 2
    22   11   12 1
    23   11   14 1
    24   12   13 2
    25   14   15 1
    26   14   16 1
    27   14   31 1
    28   16   17 am
    29   16   19 1
    30   17   18 2
    31   19   20 1
    32   19   46 1
    33   19   47 1
    34   20   21 1
    35   20   48 1
    36   20   49 1
    37   21   26 ar
    38   21   22 ar
    39   22   23 ar
    40   22   50 1
    41   23   24 ar
    42   23   51 1
    43   24   25 ar
    44   24   29 1
    45   25   26 ar
    46   25   27 1
    47   26   52 1
    48   27   28 1
    49   28   53 1
    50   28   54 1
    51   28   55 1
    52   29   30 1
    53   30   56 1
    54   30   57 1
    55   30   58 1
    56   31   36 ar
    57   31   32 ar
    58   32   33 ar
    59   32   59 1
    60   33   34 ar
    61   33   60 1
    62   34   35 ar
    63   34   61 1
    64   35   36 ar
    65   35   37 1
    66   36   62 1
    67   37   63 1
@<TRIPOS>MOLECULE
ZINC18357715
   61    64     0     0     0
SMALL
USER_CHARGES
(2S)-2-[[4,5-bis(p-tolyl)-1,2,4-triazol-3-yl]sulfanyl]-N-(1,3,5-trimethylpyrazol-4-yl)propanamide
@<TRIPOS>ATOM
      1 C1         -3.8075    0.3011    0.3970 C.3       1 <0>        -0.1197
      2 C2         -2.3207    0.0794    0.2906 C.ar      1 <0>        -0.0665
      3 C3         -1.4929    0.4479    1.3361 C.ar      1 <0>        -0.1186
      4 C4         -0.1303    0.2534    1.2426 C.ar      1 <0>        -0.0972
      5 C5          0.4114   -0.3277    0.0948 C.ar      1 <0>        -0.0309
      6 C6         -0.4301   -0.7029   -0.9538 C.ar      1 <0>        -0.0674
      7 C7         -1.7903   -0.4975   -0.8497 C.ar      1 <0>        -0.1205
      8 C8          1.8698   -0.5443   -0.0099 C.2       1 <0>         0.2396
      9 N1          2.4833   -1.3236   -0.8701 N.2       1 <0>        -0.2655
     10 N2          3.7533   -1.2744   -0.6804 N.2       1 <0>        -0.2848
     11 C9          4.0312   -0.4600    0.3134 C.2       1 <0>         0.1532
     12 N3          2.8428    0.0381    0.7728 N.pl3     1 <0>        -0.4123
     13 C10         2.6542    0.9489    1.8216 C.ar      1 <0>         0.0922
     14 C11         2.1578    2.2186    1.5594 C.ar      1 <0>        -0.0889
     15 C12         1.9672    3.1117    2.5957 C.ar      1 <0>        -0.1070
     16 C13         2.2816    2.7463    3.8917 C.ar      1 <0>        -0.0621
     17 C14         2.7820    1.4845    4.1552 C.ar      1 <0>        -0.1059
     18 C15         2.9689    0.5849    3.1238 C.ar      1 <0>        -0.0942
     19 C16         2.0789    3.7254    5.0192 C.3       1 <0>        -0.1212
     20 S1          5.6353   -0.0762    0.9332 S.3       1 <0>         0.0908
     21 C17         6.6494   -1.0940   -0.1676 C.3       1 <0>        -0.1114
     22 H1          6.3105   -2.1289   -0.1205 H         1 <0>         0.1260
     23 C18         6.5186   -0.5793   -1.6025 C.3       1 <0>        -0.1467
     24 C19         8.0913   -1.0174    0.2639 C.2       1 <0>         0.5365
     25 O1          8.4684   -0.0972    0.9585 O.2       1 <0>        -0.5040
     26 N4          8.9617   -1.9713   -0.1218 N.am      1 <0>        -0.6363
     27 C20        10.3001   -1.9195    0.3111 C.2       1 <0>        -0.0135
     28 C21        11.1451   -0.8017    0.2508 C.2       1 <0>         0.0984
     29 N5         12.3086   -1.1382    0.7454 N.2       1 <0>        -0.2868
     30 N6         12.2493   -2.4811    1.1390 N.pl3     1 <0>        -0.3708
     31 C22        11.0008   -2.9410    0.8667 C.2       1 <0>         0.0783
     32 C23        10.4874   -4.3331    1.1303 C.3       1 <0>        -0.0929
     33 C24        13.3394   -3.2517    1.7426 C.3       1 <0>         0.1039
     34 C25        10.7758    0.5551   -0.2911 C.3       1 <0>        -0.0648
     35 H2         -4.2748   -0.5767    0.8432 H         1 <0>         0.0749
     36 H3         -4.0010    1.1729    1.0219 H         1 <0>         0.0690
     37 H4         -4.2221    0.4676   -0.5973 H         1 <0>         0.0701
     38 H5         -1.9138    0.8929    2.2256 H         1 <0>         0.1281
     39 H6          0.5153    0.5459    2.0575 H         1 <0>         0.1274
     40 H7         -0.0173   -1.1533   -1.8444 H         1 <0>         0.1370
     41 H8         -2.4425   -0.7873   -1.6603 H         1 <0>         0.1317
     42 H9          1.9162    2.5061    0.5467 H         1 <0>         0.1312
     43 H10         1.5769    4.0980    2.3929 H         1 <0>         0.1371
     44 H11         3.0267    1.2019    5.1684 H         1 <0>         0.1375
     45 H12         3.3598   -0.4005    3.3302 H         1 <0>         0.1329
     46 H13         2.9864    4.3129    5.1578 H         1 <0>         0.0786
     47 H14         1.2490    4.3899    4.7786 H         1 <0>         0.0721
     48 H15         1.8545    3.1815    5.9368 H         1 <0>         0.0721
     49 H16         5.4757   -0.6347   -1.9147 H         1 <0>         0.0910
     50 H17         6.8575    0.4556   -1.6497 H         1 <0>         0.0722
     51 H18         7.1293   -1.1922   -2.2655 H         1 <0>         0.0742
     52 H19         8.6659   -2.6936   -0.6978 H         1 <0>         0.4092
     53 H20        10.6776   -4.9613    0.2601 H         1 <0>         0.0831
     54 H21        10.9981   -4.7504    1.9982 H         1 <0>         0.0759
     55 H22         9.4153   -4.2946    1.3233 H         1 <0>         0.0846
     56 H23        13.2952   -3.1552    2.8274 H         1 <0>         0.0763
     57 H24        13.2384   -4.3013    1.4668 H         1 <0>         0.0881
     58 H25        14.2955   -2.8718    1.3826 H         1 <0>         0.0923
     59 H26        10.4384    1.1931    0.5258 H         1 <0>         0.0870
     60 H27        11.6466    1.0053   -0.7678 H         1 <0>         0.0691
     61 H28         9.9754    0.4484   -1.0232 H         1 <0>         0.0681
@<TRIPOS>BOND
     1    1    2 1
     2    1   35 1
     3    1   36 1
     4    1   37 1
     5    2    7 ar
     6    2    3 ar
     7    3    4 ar
     8    3   38 1
     9    4    5 ar
    10    4   39 1
    11    5    6 ar
    12    5    8 1
    13    6    7 ar
    14    6   40 1
    15    7   41 1
    16    8   12 1
    17    8    9 2
    18    9   10 1
    19   10   11 2
    20   11   12 1
    21   11   20 1
    22   12   13 1
    23   13   18 ar
    24   13   14 ar
    25   14   15 ar
    26   14   42 1
    27   15   16 ar
    28   15   43 1
    29   16   17 ar
    30   16   19 1
    31   17   18 ar
    32   17   44 1
    33   18   45 1
    34   19   46 1
    35   19   47 1
    36   19   48 1
    37   20   21 1
    38   21   22 1
    39   21   23 1
    40   21   24 1
    41   23   49 1
    42   23   50 1
    43   23   51 1
    44   24   25 2
    45   24   26 am
    46   26   27 1
    47   26   52 1
    48   27   31 2
    49   27   28 1
    50   28   29 2
    51   28   34 1
    52   29   30 1
    53   30   31 1
    54   30   33 1
    55   31   32 1
    56   32   53 1
    57   32   54 1
    58   32   55 1
    59   33   56 1
    60   33   57 1
    61   33   58 1
    62   34   59 1
    63   34   60 1
    64   34   61 1
@<TRIPOS>MOLECULE
ZINC23126316
   50    53     0     0     0
SMALL
USER_CHARGES
2-[3-[3-(4-bromophenyl)-1,2,4-oxadiazol-5-yl]-2-oxo-1-pyridyl]-N-(4-ethylphenyl)acetamide
@<TRIPOS>ATOM
      1 C1         12.1189   -4.9945   -7.4427 C.3       1 <0>        -0.1483
      2 C2         10.6279   -4.8756   -7.1208 C.3       1 <0>        -0.0873
      3 C3         10.4569   -4.4012   -5.7007 C.ar      1 <0>        -0.0926
      4 C4         10.3875   -3.0470   -5.4293 C.ar      1 <0>        -0.1004
      5 C5         10.2298   -2.6090   -4.1290 C.ar      1 <0>        -0.1177
      6 C6         10.1414   -3.5302   -3.0935 C.ar      1 <0>         0.1393
      7 C7         10.2172   -4.8892   -3.3687 C.ar      1 <0>        -0.1384
      8 C8         10.3692   -5.3209   -4.6718 C.ar      1 <0>        -0.0998
      9 N1          9.9822   -3.0897   -1.7750 N.am      1 <0>        -0.6795
     10 C9          9.2462   -1.9907   -1.5159 C.2       1 <0>         0.5020
     11 O1          8.7918   -1.3358   -2.4300 O.2       1 <0>        -0.5079
     12 C10         8.9879   -1.5757   -0.0904 C.3       1 <0>         0.0683
     13 N2          8.1700   -0.3603   -0.0762 N.am      1 <0>        -0.4776
     14 C11         8.7764    0.8521   -0.0837 C.2       1 <0>         0.1791
     15 C12         8.0532    1.9996   -0.0711 C.2       1 <0>        -0.2363
     16 C13         6.6581    1.9484   -0.0552 C.2       1 <0>         0.0709
     17 C14         6.0291    0.7074   -0.0415 C.2       1 <0>        -0.1770
     18 C15         6.8277   -0.4651   -0.0553 C.2       1 <0>         0.5382
     19 O2          6.3003   -1.5642   -0.0480 O.2       1 <0>        -0.5185
     20 C16         4.5596    0.6125   -0.0192 C.2       1 <0>         0.2618
     21 N3          3.7046    1.6212   -0.0105 N.2       1 <0>        -0.4769
     22 C17         2.4803    1.0555    0.0128 C.2       1 <0>         0.2102
     23 N4          2.6486   -0.2423    0.0081 N.2       1 <0>        -0.3757
     24 O3          3.8301   -0.5151   -0.0101 O.3       1 <0>         0.1130
     25 C18         1.1811    1.7729    0.0335 C.ar      1 <0>        -0.0038
     26 C19        -0.0132    1.0556    0.0508 C.ar      1 <0>        -0.0780
     27 C20        -1.2187    1.7272    0.0646 C.ar      1 <0>        -0.0912
     28 C21        -1.2424    3.1112    0.0726 C.ar      1 <0>        -0.0755
     29 C22        -0.0586    3.8283    0.0559 C.ar      1 <0>        -0.0927
     30 C23         1.1519    3.1659    0.0362 C.ar      1 <0>        -0.0698
     31 Br1        -2.8976    4.0252    0.0983 Br        1 <0>        -0.0410
     32 H1         12.2437   -5.3408   -8.4793 H         1 <0>         0.0590
     33 H2         12.5858   -5.7162   -6.7563 H         1 <0>         0.0559
     34 H3         12.5991   -4.0120   -7.3240 H         1 <0>         0.0558
     35 H4         10.1610   -4.1539   -7.8072 H         1 <0>         0.0724
     36 H5         10.1476   -5.8581   -7.2395 H         1 <0>         0.0726
     37 H6         10.4563   -2.3312   -6.2350 H         1 <0>         0.1244
     38 H7         10.1750   -1.5513   -3.9178 H         1 <0>         0.1360
     39 H8         10.1529   -5.6079   -2.5652 H         1 <0>         0.1264
     40 H9         10.4237   -6.3779   -4.8871 H         1 <0>         0.1261
     41 H10        10.4577   -3.6403   -0.9500 H         1 <0>         0.4375
     42 H11         8.4557   -2.3820    0.4355 H         1 <0>         0.1415
     43 H12         9.9457   -1.3791    0.4135 H         1 <0>         0.1341
     44 H13         9.8550    0.9053   -0.1005 H         1 <0>         0.1725
     45 H14         8.5574    2.9546   -0.0774 H         1 <0>         0.1631
     46 H15         6.0760    2.8582   -0.0496 H         1 <0>         0.1550
     47 H16         0.0043   -0.0242    0.0488 H         1 <0>         0.1410
     48 H17        -2.1450    1.1721    0.0731 H         1 <0>         0.1420
     49 H18        -0.0823    4.9080    0.0580 H         1 <0>         0.1424
     50 H19         2.0750    3.7263    0.0225 H         1 <0>         0.1456
@<TRIPOS>BOND
     1    1    2 1
     2    1   32 1
     3    1   33 1
     4    1   34 1
     5    2    3 1
     6    2   35 1
     7    2   36 1
     8    3    8 ar
     9    3    4 ar
    10    4    5 ar
    11    4   37 1
    12    5    6 ar
    13    5   38 1
    14    6    7 ar
    15    6    9 1
    16    7    8 ar
    17    7   39 1
    18    8   40 1
    19    9   10 am
    20    9   41 1
    21   10   11 2
    22   10   12 1
    23   12   13 1
    24   12   42 1
    25   12   43 1
    26   13   18 am
    27   13   14 1
    28   14   15 2
    29   14   44 1
    30   15   16 1
    31   15   45 1
    32   16   17 2
    33   16   46 1
    34   17   18 1
    35   17   20 1
    36   18   19 2
    37   20   24 1
    38   20   21 2
    39   21   22 1
    40   22   23 2
    41   22   25 1
    42   23   24 1
    43   25   30 ar
    44   25   26 ar
    45   26   27 ar
    46   26   47 1
    47   27   28 ar
    48   27   48 1
    49   28   29 ar
    50   28   31 1
    51   29   30 ar
    52   29   49 1
    53   30   50 1
@<TRIPOS>MOLECULE
ZINC13086330
   65    68     0     0     0
SMALL
USER_CHARGES

@<TRIPOS>ATOM
      1 C1          3.9618    2.2292    0.9370 C.3       1 <0>        -0.1193
      2 C2          3.6076    0.8004    0.6145 C.ar      1 <0>        -0.0749
      3 C3          4.1948    0.1698   -0.4664 C.ar      1 <0>        -0.1233
      4 C4          3.8699   -1.1408   -0.7622 C.ar      1 <0>        -0.0956
      5 C5          2.9580   -1.8210    0.0231 C.ar      1 <0>        -0.1191
      6 C6          2.3715   -1.1907    1.1046 C.ar      1 <0>        -0.0942
      7 C7          2.6996    0.1186    1.4029 C.ar      1 <0>        -0.1219
      8 C8          2.6031   -3.2495   -0.3000 C.3       1 <0>         0.1655
      9 N1          3.5152   -4.1514    0.4078 N.am      1 <0>        -0.7230
     10 C9          3.3862   -5.4858    0.2685 C.2       1 <0>         0.5000
     11 O1          2.5150   -5.9398   -0.4427 O.2       1 <0>        -0.5247
     12 C10         4.3245   -6.4135    0.9965 C.3       1 <0>         0.0964
     13 N2          3.9149   -7.8012    0.7669 N.am      1 <0>        -0.5428
     14 C11         4.5121   -8.5469   -0.2554 C.ar      1 <0>         0.1111
     15 C12         3.9422   -8.5732   -1.5218 C.ar      1 <0>        -0.1155
     16 C13         4.5341   -9.3101   -2.5285 C.ar      1 <0>        -0.1237
     17 C14         5.6931  -10.0215   -2.2769 C.ar      1 <0>        -0.1010
     18 C15         6.2627   -9.9978   -1.0173 C.ar      1 <0>        -0.0829
     19 C16         5.6789   -9.2576   -0.0076 C.ar      1 <0>        -0.0733
     20 C17         6.3041   -9.2269    1.3633 C.3       1 <0>        -0.1290
     21 C18         7.5251  -10.7753   -0.7473 C.3       1 <0>        -0.1179
     22 C19         2.9628   -8.3596    1.5403 C.2       1 <0>         0.5223
     23 O2          2.4613   -7.7206    2.4410 O.2       1 <0>        -0.4831
     24 C20         2.5212   -9.7778    1.2859 C.3       1 <0>         0.1429
     25 C21         1.8768  -10.3521    2.5538 C.3       1 <0>        -0.1855
     26 C22         0.5588   -9.6510    2.7769 C.2       1 <0>         0.5146
     27 O3          0.1717   -9.4295    3.9091 O.2       1 <0>        -0.4959
     28 N3         -0.1743   -9.2775    1.7435 N.2       1 <0>        -0.6435
     29 C23         0.2246   -9.4946    0.4844 C.2       1 <0>         0.4655
     30 N4          1.5258   -9.7985    0.2060 N.pl3     1 <0>        -0.4689
     31 C24         1.9082  -10.1057   -1.0570 C.2       1 <0>         0.1147
     32 C25         1.0278  -10.0299   -2.0850 C.2       1 <0>        -0.2070
     33 C26        -0.2961   -9.6465   -1.8445 C.2       1 <0>        -0.0111
     34 C27        -0.6967   -9.3801   -0.5657 C.2       1 <0>        -0.1636
     35 C28         3.7290  -10.6285    0.8878 C.3       1 <0>        -0.2053
     36 H1          4.8142    2.2478    1.6162 H         1 <0>         0.0730
     37 H2          4.2179    2.7564    0.0180 H         1 <0>         0.0682
     38 H3          3.1095    2.7170    1.4102 H         1 <0>         0.0685
     39 H4          4.9072    0.7012   -1.0800 H         1 <0>         0.1245
     40 H5          4.3282   -1.6333   -1.6071 H         1 <0>         0.1232
     41 H6          1.6588   -1.7220    1.7180 H         1 <0>         0.1246
     42 H7          2.2441    0.6098    2.2501 H         1 <0>         0.1251
     43 H8          1.5785   -3.4492    0.0139 H         1 <0>         0.0765
     44 H9          2.6922   -3.4120   -1.3741 H         1 <0>         0.0762
     45 H10         4.2119   -3.7882    0.9766 H         1 <0>         0.4024
     46 H11         5.3392   -6.2681    0.6260 H         1 <0>         0.1168
     47 H12         4.2931   -6.1974    2.0644 H         1 <0>         0.1181
     48 H13         3.0370   -8.0181   -1.7188 H         1 <0>         0.1415
     49 H14         4.0912   -9.3312   -3.5133 H         1 <0>         0.1355
     50 H15         6.1541  -10.5971   -3.0660 H         1 <0>         0.1326
     51 H16         6.0235  -10.1267    1.9108 H         1 <0>         0.0822
     52 H17         7.3890   -9.1837    1.2670 H         1 <0>         0.0800
     53 H18         5.9520   -8.3482    1.9036 H         1 <0>         0.0696
     54 H19         8.3873  -10.1175   -0.8566 H         1 <0>         0.0751
     55 H20         7.4973  -11.1723    0.2675 H         1 <0>         0.0712
     56 H21         7.6037  -11.5985   -1.4574 H         1 <0>         0.0713
     57 H22         1.7071  -11.4214    2.4274 H         1 <0>         0.1096
     58 H23         2.5322  -10.1823    3.4080 H         1 <0>         0.1167
     59 H24         2.9257  -10.4139   -1.2469 H         1 <0>         0.1760
     60 H25         1.3482  -10.2650   -3.0892 H         1 <0>         0.1539
     61 H26        -0.9956   -9.5616   -2.6630 H         1 <0>         0.1483
     62 H27        -1.7156   -9.0831   -0.3655 H         1 <0>         0.1616
     63 H28         4.5595  -10.4182    1.5617 H         1 <0>         0.1057
     64 H29         3.4669  -11.6845    0.9528 H         1 <0>         0.0826
     65 H30         4.0211  -10.3888   -0.1346 H         1 <0>         0.1024
@<TRIPOS>BOND
     1    1    2 1
     2    1   36 1
     3    1   37 1
     4    1   38 1
     5    2    7 ar
     6    2    3 ar
     7    3    4 ar
     8    3   39 1
     9    4    5 ar
    10    4   40 1
    11    5    6 ar
    12    5    8 1
    13    6    7 ar
    14    6   41 1
    15    7   42 1
    16    8    9 1
    17    8   43 1
    18    8   44 1
    19    9   10 am
    20    9   45 1
    21   10   11 2
    22   10   12 1
    23   12   13 1
    24   12   46 1
    25   12   47 1
    26   13   14 1
    27   13   22 am
    28   14   19 ar
    29   14   15 ar
    30   15   16 ar
    31   15   48 1
    32   16   17 ar
    33   16   49 1
    34   17   18 ar
    35   17   50 1
    36   18   19 ar
    37   18   21 1
    38   19   20 1
    39   20   51 1
    40   20   52 1
    41   20   53 1
    42   21   54 1
    43   21   55 1
    44   21   56 1
    45   22   23 2
    46   22   24 1
    47   24   30 1
    48   24   25 1
    49   24   35 1
    50   25   26 1
    51   25   57 1
    52   25   58 1
    53   26   27 2
    54   26   28 1
    55   28   29 2
    56   29   34 1
    57   29   30 1
    58   30   31 1
    59   31   32 2
    60   31   59 1
    61   32   33 1
    62   32   60 1
    63   33   34 2
    64   33   61 1
    65   34   62 1
    66   35   63 1
    67   35   64 1
    68   35   65 1
@<TRIPOS>MOLECULE
ZINC63709863
   45    48     0     0     0
SMALL
USER_CHARGES

@<TRIPOS>ATOM
      1 C1          0.6107    1.4241    1.0200 C.ar      1 <0>        -0.0972
      2 C2          1.1713    2.1248   -0.0325 C.ar      1 <0>        -0.0629
      3 C3          1.7593    1.4459   -1.0838 C.ar      1 <0>        -0.1645
      4 C4          1.7886    0.0649   -1.0860 C.ar      1 <0>        -0.0503
      5 C5          1.2266   -0.6417   -0.0307 C.ar      1 <0>         0.1428
      6 C6          0.6365    0.0436    1.0240 C.ar      1 <0>        -0.0843
      7 N1          1.2541   -2.0395   -0.0300 N.am      1 <0>        -0.5722
      8 C7          0.0080   -2.8007    0.0913 C.3       1 <0>         0.2646
      9 H1         -0.4746   -2.4846    1.0161 H         1 <0>         0.1805
     10 N2          0.0299   -4.2655    0.0922 N.2       1 <0>        -0.2799
     11 C8          1.1487   -4.9066   -0.0139 C.2       1 <0>         0.2195
     12 C9          2.4301   -4.1622   -0.1386 C.2       1 <0>        -0.2362
     13 C10         3.3848   -5.1252   -0.2283 C.2       1 <0>         0.0745
     14 N3          2.7793   -6.3256   -0.1677 N.2       1 <0>        -0.1221
     15 N4          1.5035   -6.2280   -0.0453 N.2       1 <0>        -0.1054
     16 C11         2.4300   -2.6963   -0.1468 C.2       1 <0>         0.5776
     17 O1          3.4730   -2.0797   -0.2534 O.2       1 <0>        -0.4739
     18 S1         -1.0731   -2.2817   -1.2697 S.3       1 <0>        -0.0459
     19 C12        -0.1294   -2.6964   -2.7624 C.3       1 <0>        -0.1545
     20 C13        -0.9251   -2.3112   -3.9829 C.2       1 <0>         0.5389
     21 O2         -2.0210   -1.8067   -3.8580 O.2       1 <0>        -0.4888
     22 N5         -0.4190   -2.5275   -5.2131 N.am      1 <0>        -0.6662
     23 C14        -1.1044   -2.0660   -6.3429 C.ar      1 <0>         0.1467
     24 C15        -1.0812   -2.8029   -7.5197 C.ar      1 <0>        -0.1279
     25 C16        -1.7583   -2.3453   -8.6330 C.ar      1 <0>        -0.0893
     26 C17        -2.4595   -1.1536   -8.5766 C.ar      1 <0>        -0.0456
     27 C18        -2.4842   -0.4173   -7.4052 C.ar      1 <0>        -0.0883
     28 C19        -1.8135   -0.8733   -6.2873 C.ar      1 <0>        -0.1050
     29 Cl1        -3.3091   -0.5809   -9.9780 Cl        1 <0>        -0.0645
     30 C20         2.3684    2.2134   -2.2287 C.3       1 <0>         0.5092
     31 F1          2.2169    3.5858   -2.0031 F         1 <0>        -0.1723
     32 F2          3.7294    1.9043   -2.3257 F         1 <0>        -0.1721
     33 F3          1.7245    1.8628   -3.4202 F         1 <0>        -0.1746
     34 H2          0.1562    1.9575    1.8418 H         1 <0>         0.1485
     35 H3          1.1495    3.2045   -0.0334 H         1 <0>         0.1480
     36 H4          2.2477   -0.4647   -1.9076 H         1 <0>         0.1328
     37 H5          0.1989   -0.5029    1.8464 H         1 <0>         0.1379
     38 H6          4.4465   -4.9563   -0.3312 H         1 <0>         0.2124
     39 H7          0.8151   -2.1524   -2.7579 H         1 <0>         0.1168
     40 H8          0.0686   -3.7681   -2.7810 H         1 <0>         0.1180
     41 H9          0.4203   -3.0029   -5.3156 H         1 <0>         0.4152
     42 H10        -0.5338   -3.7328   -7.5643 H         1 <0>         0.1372
     43 H11        -1.7402   -2.9178   -9.5486 H         1 <0>         0.1406
     44 H12        -3.0319    0.5126   -7.3638 H         1 <0>         0.1398
     45 H13        -1.8368   -0.3006   -5.3719 H         1 <0>         0.1423
@<TRIPOS>BOND
     1    1    6 ar
     2    1    2 ar
     3    1   34 1
     4    2    3 ar
     5    2   35 1
     6    3    4 ar
     7    3   30 1
     8    4    5 ar
     9    4   36 1
    10    5    6 ar
    11    5    7 1
    12    6   37 1
    13    7   16 am
    14    7    8 1
    15    8    9 1
    16    8   10 1
    17    8   18 1
    18   10   11 2
    19   11   15 1
    20   11   12 1
    21   12   13 2
    22   12   16 1
    23   13   14 1
    24   13   38 1
    25   14   15 2
    26   16   17 2
    27   18   19 1
    28   19   20 1
    29   19   39 1
    30   19   40 1
    31   20   21 2
    32   20   22 am
    33   22   23 1
    34   22   41 1
    35   23   28 ar
    36   23   24 ar
    37   24   25 ar
    38   24   42 1
    39   25   26 ar
    40   25   43 1
    41   26   27 ar
    42   26   29 1
    43   27   28 ar
    44   27   44 1
    45   28   45 1
    46   30   31 1
    47   30   32 1
    48   30   33 1
@<TRIPOS>MOLECULE
ZINC02748675
   51    54     0     0     0
SMALL
USER_CHARGES
(3-bromo-4,5-diethoxy-phenyl)-methylsulfanyl-BLAH
@<TRIPOS>ATOM
      1 C1          3.1687    0.3089   -4.6105 C.3       1 <0>        -0.1516
      2 C2          2.1991    0.1299   -3.4406 C.3       1 <0>         0.0501
      3 O1          2.7018    0.8209   -2.2952 O.3       1 <0>        -0.2986
      4 C3          1.9537    0.7619   -1.1610 C.ar      1 <0>         0.1215
      5 C4          0.7621    0.0544   -1.1512 C.ar      1 <0>        -0.1534
      6 C5          0.0021   -0.0041    0.0020 C.ar      1 <0>        -0.0680
      7 C6          0.4282    0.6413    1.1480 C.ar      1 <0>        -0.0845
      8 C7          1.6167    1.3488    1.1454 C.ar      1 <0>        -0.0794
      9 C8          2.3829    1.4120   -0.0084 C.ar      1 <0>         0.1041
     10 O2          3.5517    2.1075   -0.0132 O.3       1 <0>        -0.3143
     11 C9          3.4834    3.4884   -0.3742 C.3       1 <0>         0.0627
     12 C10         4.8854    4.0989   -0.3231 C.3       1 <0>        -0.1494
     13 Br1         2.1958    2.2308    2.7147 Br        1 <0>        -0.0198
     14 C11        -1.2937   -0.7735    0.0102 C.3       1 <0>         0.3899
     15 H1         -1.1178   -1.7602    0.4388 H         1 <0>         0.1089
     16 N1         -2.2640   -0.0621    0.8367 N.pl3     1 <0>        -0.7911
     17 C12        -2.8856    1.0763    0.3191 C.ar      1 <0>         0.1855
     18 C13        -2.6055    2.3373    0.8119 C.ar      1 <0>        -0.1221
     19 C14        -3.2127    3.4462    0.2514 C.ar      1 <0>        -0.0883
     20 C15        -4.1006    3.3019   -0.8008 C.ar      1 <0>        -0.1239
     21 C16        -4.3959    2.0482   -1.2996 C.ar      1 <0>        -0.0655
     22 C17        -3.7970    0.9250   -0.7428 C.ar      1 <0>        -0.0617
     23 C18        -4.0945   -0.4356   -1.2363 C.ar      1 <0>         0.0560
     24 C19        -3.0321   -1.3275   -1.5074 C.ar      1 <0>         0.3724
     25 N2         -3.3182   -2.5453   -1.9348 N.ar      1 <0>        -0.4636
     26 C20        -4.5909   -2.8936   -2.1021 C.ar      1 <0>         0.2459
     27 N3         -5.5737   -2.0391   -1.8475 N.ar      1 <0>        -0.2901
     28 N4         -5.3396   -0.8441   -1.4269 N.ar      1 <0>        -0.1519
     29 S1         -4.9781   -4.5155   -2.6715 S.3       1 <0>         0.0439
     30 C21        -6.7849   -4.4136   -2.7057 C.3       1 <0>        -0.1548
     31 O3         -1.7517   -0.9246   -1.3287 O.3       1 <0>        -0.3118
     32 H2          3.2684    1.3697   -4.8407 H         1 <0>         0.0668
     33 H3          4.1434   -0.0973   -4.3399 H         1 <0>         0.0687
     34 H4          2.7853   -0.2181   -5.4841 H         1 <0>         0.0810
     35 H5          2.0994   -0.9308   -3.2103 H         1 <0>         0.0661
     36 H6          1.2244    0.5361   -3.7111 H         1 <0>         0.0640
     37 H7          0.4269   -0.4510   -2.0448 H         1 <0>         0.1474
     38 H8         -0.1704    0.5967    2.0458 H         1 <0>         0.1425
     39 H9          3.0836    3.5807   -1.3840 H         1 <0>         0.0543
     40 H10         2.8323    4.0147    0.3239 H         1 <0>         0.0547
     41 H11         5.2852    4.0067    0.6868 H         1 <0>         0.0664
     42 H12         5.5365    3.5727   -1.0211 H         1 <0>         0.0661
     43 H13         4.8333    5.1523   -0.5984 H         1 <0>         0.0761
     44 H14        -2.4741   -0.3740    1.7308 H         1 <0>         0.4152
     45 H15        -1.9143    2.4561    1.6332 H         1 <0>         0.1322
     46 H16        -2.9931    4.4308    0.6370 H         1 <0>         0.1311
     47 H17        -4.5654    4.1751   -1.2343 H         1 <0>         0.1319
     48 H18        -5.0900    1.9414   -2.1202 H         1 <0>         0.1300
     49 H19        -7.1555   -4.1955   -1.7041 H         1 <0>         0.0963
     50 H20        -7.0912   -3.6200   -3.3873 H         1 <0>         0.0963
     51 H21        -7.1960   -5.3639   -3.0463 H         1 <0>         0.1159
@<TRIPOS>BOND
     1    1    2 1
     2    1   32 1
     3    1   33 1
     4    1   34 1
     5    2    3 1
     6    2   35 1
     7    2   36 1
     8    3    4 1
     9    4    9 ar
    10    4    5 ar
    11    5    6 ar
    12    5   37 1
    13    6    7 ar
    14    6   14 1
    15    7    8 ar
    16    7   38 1
    17    8    9 ar
    18    8   13 1
    19    9   10 1
    20   10   11 1
    21   11   12 1
    22   11   39 1
    23   11   40 1
    24   12   41 1
    25   12   42 1
    26   12   43 1
    27   14   15 1
    28   14   31 1
    29   14   16 1
    30   16   17 1
    31   16   44 1
    32   17   22 ar
    33   17   18 ar
    34   18   19 ar
    35   18   45 1
    36   19   20 ar
    37   19   46 1
    38   20   21 ar
    39   20   47 1
    40   21   22 ar
    41   21   48 1
    42   22   23 1
    43   23   28 ar
    44   23   24 ar
    45   24   25 ar
    46   24   31 1
    47   25   26 ar
    48   26   27 ar
    49   26   29 1
    50   27   28 ar
    51   29   30 1
    52   30   49 1
    53   30   50 1
    54   30   51 1
@<TRIPOS>MOLECULE
ZINC13370364
   62    67     0     0     0
SMALL
USER_CHARGES

@<TRIPOS>ATOM
      1 C1          1.1506    1.4589   -0.0204 C.3       1 <0>        -0.0834
      2 C2          0.9883   -0.0394   -0.0226 C.2       1 <0>        -0.1024
      3 S1          0.7364   -1.1428   -1.4042 S.3       1 <0>         0.3092
      4 C3          0.6621   -2.6609   -0.4781 C.cat     1 <0>         0.3147
      5 N1          0.8320   -2.2377    0.8132 N.am      1 <0>        -0.4260
      6 C4          1.0011   -0.8875    1.0054 C.2       1 <0>         0.0238
      7 C5          0.8206   -3.2055    1.7778 C.2       1 <0>         0.5246
      8 O1          0.9660   -2.9007    2.9512 O.2       1 <0>        -0.4277
      9 C6          0.6422   -4.5422    1.4206 C.2       1 <0>        -0.1939
     10 C7          0.4781   -4.8800    0.0940 C.2       1 <0>         0.1689
     11 N2          0.4947   -3.9139   -0.8207 N.pl3     1 <0>        -0.4818
     12 C8          0.2845   -6.3180   -0.3129 C.3       1 <0>         0.1013
     13 O2          0.3072   -7.1491    0.8494 O.3       1 <0>        -0.3448
     14 C9          0.1465   -8.4732    0.6579 C.2       1 <0>         0.5278
     15 O3         -0.0086   -8.9102   -0.4652 O.2       1 <0>        -0.4908
     16 C10         0.1590   -9.3919    1.8113 C.ar      1 <0>        -0.1599
     17 C11         0.3316   -8.8902    3.1048 C.ar      1 <0>        -0.0360
     18 C12         0.3422   -9.7506    4.1792 C.ar      1 <0>        -0.1394
     19 C13         0.1819  -11.1182    3.9790 C.ar      1 <0>         0.2031
     20 C14         0.0103  -11.6211    2.6930 C.ar      1 <0>        -0.1598
     21 C15        -0.0076  -10.7660    1.6145 C.ar      1 <0>        -0.0214
     22 N3          0.1936  -11.9868    5.0695 N.am      1 <0>        -0.6752
     23 C16        -0.3056  -11.5861    6.2555 C.2       1 <0>         0.5273
     24 O4         -0.8511  -10.5071    6.3505 O.2       1 <0>        -0.5074
     25 C17        -0.1859  -12.4788    7.4637 C.3       1 <0>        -0.0679
     26 C18         1.2920  -12.7460    7.7560 C.3       1 <0>        -0.1006
     27 C19         1.4135  -13.6523    8.9827 C.3       1 <0>        -0.0840
     28 H1          2.4664  -13.8427    9.1909 H         1 <0>         0.0774
     29 C20         0.7709  -12.9659   10.1896 C.3       1 <0>        -0.1118
     30 C21        -0.7069  -12.6987    9.8974 C.3       1 <0>        -0.0870
     31 H2         -1.1647  -12.2097   10.7572 H         1 <0>         0.0772
     32 C22        -0.8285  -11.7923    8.6707 C.3       1 <0>        -0.0879
     33 C23        -1.4207  -14.0243    9.6248 C.3       1 <0>        -0.1121
     34 C24        -0.7781  -14.7107    8.4178 C.3       1 <0>        -0.0840
     35 H3         -1.2866  -15.6551    8.2236 H         1 <0>         0.0777
     36 C25        -0.8996  -13.8044    7.1911 C.3       1 <0>        -0.1022
     37 C26         0.6998  -14.9779    8.7101 C.3       1 <0>        -0.1115
     38 H4          2.2063    1.7101   -0.1233 H         1 <0>         0.1104
     39 H5          0.5927    1.8860   -0.8537 H         1 <0>         0.1019
     40 H6          0.7704    1.8642    0.9172 H         1 <0>         0.1123
     41 H7          1.1438   -0.5072    2.0060 H         1 <0>         0.2196
     42 H8          0.6331   -5.3097    2.1804 H         1 <0>         0.2123
     43 H9         -0.6751   -6.4265   -0.8184 H         1 <0>         0.1224
     44 H10         1.0866   -6.6157   -0.9882 H         1 <0>         0.1224
     45 H11         0.4568   -7.8289    3.2609 H         1 <0>         0.1394
     46 H12         0.4755   -9.3638    5.1787 H         1 <0>         0.1461
     47 H13        -0.1131  -12.6833    2.5412 H         1 <0>         0.1419
     48 H14        -0.1456  -11.1564    0.6171 H         1 <0>         0.1455
     49 H15         0.5611  -12.8794    4.9746 H         1 <0>         0.4168
     50 H16         1.7498  -13.2350    6.8962 H         1 <0>         0.0666
     51 H17         1.8005  -11.8016    7.9502 H         1 <0>         0.0696
     52 H18         0.8575  -13.6116   11.0635 H         1 <0>         0.0676
     53 H19         1.2794  -12.0215   10.3838 H         1 <0>         0.0640
     54 H20        -0.3200  -10.8480    8.8649 H         1 <0>         0.0706
     55 H21        -1.8813  -11.6020    8.4625 H         1 <0>         0.0711
     56 H22        -1.3341  -14.6700   10.4987 H         1 <0>         0.0677
     57 H23        -2.4735  -13.8339    9.4165 H         1 <0>         0.0644
     58 H24        -1.9525  -13.6140    6.9829 H         1 <0>         0.0706
     59 H25        -0.4418  -14.2934    6.3313 H         1 <0>         0.0660
     60 H26         1.1576  -15.4669    7.8502 H         1 <0>         0.0641
     61 H27         0.7864  -15.6236    9.5840 H         1 <0>         0.0686
     62 H28         0.3801   -4.1413   -1.7567 H         1 <0>         0.4644
@<TRIPOS>BOND
     1    1    2 1
     2    1   38 1
     3    1   39 1
     4    1   40 1
     5    2    6 2
     6    2    3 1
     7    3    4 1
     8    4   11 2
     9    4    5 1
    10    5    6 1
    11    5    7 am
    12    6   41 1
    13    7    8 2
    14    7    9 1
    15    9   10 2
    16    9   42 1
    17   10   11 1
    18   10   12 1
    19   11   62 1
    20   12   13 1
    21   12   43 1
    22   12   44 1
    23   13   14 1
    24   14   15 2
    25   14   16 1
    26   16   21 ar
    27   16   17 ar
    28   17   18 ar
    29   17   45 1
    30   18   19 ar
    31   18   46 1
    32   19   20 ar
    33   19   22 1
    34   20   21 ar
    35   20   47 1
    36   21   48 1
    37   22   23 am
    38   22   49 1
    39   23   24 2
    40   23   25 1
    41   25   32 1
    42   25   36 1
    43   25   26 1
    44   26   27 1
    45   26   50 1
    46   26   51 1
    47   27   28 1
    48   27   37 1
    49   27   29 1
    50   29   30 1
    51   29   52 1
    52   29   53 1
    53   30   31 1
    54   30   32 1
    55   30   33 1
    56   32   54 1
    57   32   55 1
    58   33   34 1
    59   33   56 1
    60   33   57 1
    61   34   35 1
    62   34   36 1
    63   34   37 1
    64   36   58 1
    65   36   59 1
    66   37   60 1
    67   37   61 1
@<TRIPOS>MOLECULE
ZINC23545316
   55    59     0     0     0
SMALL
USER_CHARGES
(2E,4R)-2-(3H-1,3-benzothiazol-2-ylidene)-4-[[4-(o-tolyl)-5-(4-pyridyl)-1,2,4-triazol-3-yl]sulfanyl]-3-oxo-pentanenitrile
@<TRIPOS>ATOM
      1 C1          3.5817    4.9072    2.3508 C.3       1 <0>        -0.1251
      2 C2          4.3605    4.7242    1.0737 C.ar      1 <0>        -0.0519
      3 C3          5.7330    4.5732    1.1165 C.ar      1 <0>        -0.1089
      4 C4          6.4487    4.4105   -0.0552 C.ar      1 <0>        -0.0891
      5 C5          5.7930    4.3935   -1.2727 C.ar      1 <0>        -0.1134
      6 C6          4.4205    4.5391   -1.3214 C.ar      1 <0>        -0.0941
      7 C7          3.6989    4.7023   -0.1464 C.ar      1 <0>         0.0884
      8 N1          2.3058    4.8503   -0.1926 N.pl3     1 <0>        -0.4072
      9 C8          1.5961    6.0267   -0.3020 C.2       1 <0>         0.2238
     10 N2          0.3219    5.7088   -0.3040 N.2       1 <0>        -0.2509
     11 N3          0.1866    4.4344   -0.2097 N.2       1 <0>        -0.2796
     12 C9          1.3671    3.8577   -0.1415 C.2       1 <0>         0.1639
     13 S1          1.6797    2.1293   -0.0025 S.3       1 <0>         0.0941
     14 C10        -0.0184    1.5028    0.0103 C.3       1 <0>        -0.1365
     15 H1         -0.6912    1.7625   -0.8203 H         1 <0>         0.1276
     16 C11        -0.7345    1.9962    1.2691 C.3       1 <0>        -0.1464
     17 C12         0.0021   -0.0041    0.0020 C.2       1 <0>         0.4501
     18 O1          0.9687   -0.6013    0.4346 O.2       1 <0>        -0.4956
     19 C13        -1.0955   -0.7185   -0.5054 C.2       1 <0>        -0.2541
     20 C14        -1.0764   -2.1258   -0.5132 C.2       1 <0>         0.2695
     21 N4         -0.0927   -2.9574   -0.0816 N.pl3     1 <0>        -0.6100
     22 C15        -0.2555   -4.3267   -0.1651 C.ar      1 <0>         0.1179
     23 C16         0.6373   -5.3361    0.2296 C.ar      1 <0>        -0.1094
     24 C17         0.3148   -6.6623    0.0673 C.ar      1 <0>        -0.0753
     25 C18        -0.8954   -7.0445   -0.4876 C.ar      1 <0>        -0.1126
     26 C19        -1.7937   -6.0708   -0.8864 C.ar      1 <0>        -0.0375
     27 C20        -1.4726   -4.7438   -0.7240 C.ar      1 <0>        -0.1693
     28 S2         -2.2999   -3.2148   -1.0828 S.3       1 <0>         0.1471
     29 C21        -2.2340   -0.0151   -1.0149 C.1       1 <0>         0.2645
     30 N5         -3.1372    0.5430   -1.4191 N.1       1 <0>        -0.4108
     31 C22         2.1617    7.3883   -0.3945 C.ar      1 <0>         0.0292
     32 C23         3.5166    7.5866   -0.6884 C.ar      1 <0>        -0.1627
     33 C24         4.0010    8.8749   -0.7701 C.ar      1 <0>         0.1066
     34 N6          3.2096    9.9110   -0.5654 N.ar      1 <0>        -0.4750
     35 C25         1.9288    9.7689   -0.2812 C.ar      1 <0>         0.1056
     36 C26         1.3592    8.5169   -0.1850 C.ar      1 <0>        -0.1300
     37 H2          4.2730    4.8978    3.2064 H         1 <0>         0.0796
     38 H3          2.8550    4.0884    2.4576 H         1 <0>         0.0766
     39 H4          3.0487    5.8690    2.3206 H         1 <0>         0.0705
     40 H5          6.2479    4.5864    2.0657 H         1 <0>         0.1379
     41 H6          7.5221    4.2967   -0.0196 H         1 <0>         0.1364
     42 H7          6.3548    4.2665   -2.1863 H         1 <0>         0.1386
     43 H8          3.9091    4.5265   -2.2725 H         1 <0>         0.1325
     44 H9         -1.7665    1.6155    1.2769 H         1 <0>         0.0734
     45 H10        -0.7494    3.0961    1.2752 H         1 <0>         0.0905
     46 H11        -0.2025    1.6318    2.1602 H         1 <0>         0.0701
     47 H12         0.8360   -2.5408    0.3355 H         1 <0>         0.4645
     48 H13         1.5882   -5.0673    0.6652 H         1 <0>         0.1381
     49 H14         1.0180   -7.4205    0.3786 H         1 <0>         0.1422
     50 H15        -1.1347   -8.0907   -0.6082 H         1 <0>         0.1455
     51 H16        -2.7418   -6.3513   -1.3209 H         1 <0>         0.1436
     52 H17         4.1711    6.7433   -0.8522 H         1 <0>         0.1399
     53 H18         5.0436    9.0383   -0.9999 H         1 <0>         0.1616
     54 H19         1.3183   10.6454   -0.1213 H         1 <0>         0.1660
     55 H20         0.3103    8.4082    0.0481 H         1 <0>         0.1495
@<TRIPOS>BOND
     1    1    2 1
     2    1   37 1
     3    1   38 1
     4    1   39 1
     5    2    7 ar
     6    2    3 ar
     7    3    4 ar
     8    3   40 1
     9    4    5 ar
    10    4   41 1
    11    5    6 ar
    12    5   42 1
    13    6    7 ar
    14    6   43 1
    15    7    8 1
    16    8   12 1
    17    8    9 1
    18    9   10 2
    19    9   31 1
    20   10   11 1
    21   11   12 2
    22   12   13 1
    23   13   14 1
    24   14   15 1
    25   14   16 1
    26   14   17 1
    27   16   44 1
    28   16   45 1
    29   16   46 1
    30   17   18 2
    31   17   19 1
    32   19   20 2
    33   19   29 1
    34   20   28 1
    35   20   21 1
    36   21   22 1
    37   21   47 1
    38   22   27 ar
    39   22   23 ar
    40   23   24 ar
    41   23   48 1
    42   24   25 ar
    43   24   49 1
    44   25   26 ar
    45   25   50 1
    46   26   27 ar
    47   26   51 1
    48   27   28 1
    49   29   30 3
    50   31   36 ar
    51   31   32 ar
    52   32   33 ar
    53   32   52 1
    54   33   34 ar
    55   33   53 1
    56   34   35 ar
    57   35   36 ar
    58   35   54 1
    59   36   55 1
@<TRIPOS>MOLECULE
ZINC38707580
   73    76     0     0     0
SMALL
USER_CHARGES

@<TRIPOS>ATOM
      1 C1         -1.7912    0.1227    4.1084 C.3       1 <0>        -0.1147
      2 C2         -1.4830   -1.2858    3.6702 C.ar      1 <0>        -0.1089
      3 C3         -1.2189   -2.2604    4.6154 C.ar      1 <0>        -0.0882
      4 C4         -0.9361   -3.5520    4.2171 C.ar      1 <0>        -0.1560
      5 C5         -0.9175   -3.8721    2.8657 C.ar      1 <0>         0.1602
      6 C6         -1.1835   -2.8915    1.9193 C.ar      1 <0>        -0.1531
      7 C7         -1.4704   -1.6024    2.3244 C.ar      1 <0>        -0.0595
      8 C8         -1.7649   -0.5388    1.2982 C.3       1 <0>        -0.1171
      9 N1         -0.6309   -5.1798    2.4588 N.am      1 <0>        -0.5566
     10 C9         -0.6941   -5.6473    1.0691 C.3       1 <0>         0.1106
     11 C10         0.1015   -6.9713    1.0431 C.3       1 <0>        -0.1235
     12 H1          1.1438   -6.7949    0.7776 H         1 <0>         0.1293
     13 C11        -0.0237   -7.4432    2.5102 C.3       1 <0>        -0.1443
     14 C12        -0.2567   -6.1679    3.2899 C.2       1 <0>         0.5194
     15 O1         -0.1273   -6.0542    4.4904 O.2       1 <0>        -0.5009
     16 C13        -0.5318   -7.9625    0.1010 C.2       1 <0>         0.5297
     17 O2         -1.5351   -7.6621   -0.5108 O.2       1 <0>        -0.5048
     18 N2          0.0167   -9.1828   -0.0617 N.am      1 <0>        -0.6666
     19 C14        -0.5101  -10.0663   -1.0123 C.ar      1 <0>         0.1508
     20 C15        -1.0488   -9.5732   -2.1935 C.ar      1 <0>        -0.1030
     21 C16        -1.5676  -10.4422   -3.1345 C.ar      1 <0>        -0.1021
     22 C17        -1.5511  -11.8074   -2.8984 C.ar      1 <0>         0.1147
     23 C18        -1.0138  -12.3055   -1.7123 C.ar      1 <0>         0.1051
     24 C19        -0.4877  -11.4342   -0.7746 C.ar      1 <0>        -0.1394
     25 O3         -1.0117  -13.6454   -1.4840 O.3       1 <0>        -0.3202
     26 C20        -2.2530  -14.2470   -1.1259 C.3       1 <0>         0.0790
     27 C21        -3.3790  -13.7148   -2.0096 C.3       1 <0>        -0.1202
     28 C22        -2.9292  -13.6656   -3.4470 C.2       1 <0>         0.5340
     29 O4         -3.3366  -14.4867   -4.2415 O.2       1 <0>        -0.5122
     30 N3         -2.0699  -12.7018   -3.8468 N.am      1 <0>        -0.5575
     31 C23        -1.6842  -12.5923   -5.2559 C.3       1 <0>         0.1121
     32 C24        -0.4407  -13.4460   -5.5121 C.3       1 <0>        -0.1272
     33 C25        -0.0380  -13.3317   -6.9837 C.3       1 <0>        -0.0926
     34 C26         1.2746  -14.0836   -7.2132 C.3       1 <0>        -0.1469
     35 C27        -1.1341  -13.9395   -7.8612 C.3       1 <0>        -0.1506
     36 C28        -3.7628  -12.3069   -1.5496 C.3       1 <0>        -0.1645
     37 C29        -4.5959  -14.6343   -1.8899 C.3       1 <0>        -0.1280
     38 H2         -2.8654    0.2294    4.2596 H         1 <0>         0.0695
     39 H3         -1.2701    0.3350    5.0420 H         1 <0>         0.0659
     40 H4         -1.4610    0.8225    3.3407 H         1 <0>         0.0680
     41 H5         -1.2335   -2.0108    5.6661 H         1 <0>         0.1271
     42 H6         -0.7293   -4.3124    4.9557 H         1 <0>         0.1540
     43 H7         -1.1698   -3.1372    0.8677 H         1 <0>         0.1257
     44 H8         -0.8360   -0.0495    1.0053 H         1 <0>         0.0724
     45 H9         -2.2262   -0.9963    0.4230 H         1 <0>         0.0669
     46 H10        -2.4454    0.1985    1.7241 H         1 <0>         0.0714
     47 H11        -1.7293   -5.8235    0.7771 H         1 <0>         0.1033
     48 H12        -0.2329   -4.9170    0.4042 H         1 <0>         0.0959
     49 H13        -0.8686   -8.1227    2.6216 H         1 <0>         0.1162
     50 H14         0.8989   -7.9233    2.8365 H         1 <0>         0.1202
     51 H15         0.7763   -9.4492    0.4795 H         1 <0>         0.4161
     52 H16        -1.0627   -8.5089   -2.3769 H         1 <0>         0.1451
     53 H17        -1.9858  -10.0575   -4.0529 H         1 <0>         0.1378
     54 H18        -0.0640  -11.8172    0.1420 H         1 <0>         0.1420
     55 H19        -2.1786  -15.3275   -1.2488 H         1 <0>         0.1103
     56 H20        -2.4757  -14.0205   -0.0832 H         1 <0>         0.0750
     57 H21        -2.5022  -12.9438   -5.8848 H         1 <0>         0.0919
     58 H22        -1.4653  -11.5512   -5.4928 H         1 <0>         0.0812
     59 H23         0.3772  -13.0945   -4.8832 H         1 <0>         0.0652
     60 H24        -0.6596  -14.4872   -5.2752 H         1 <0>         0.0690
     61 H25         0.0948  -12.2814   -7.2435 H         1 <0>         0.0703
     62 H26         1.1419  -15.1339   -6.9534 H         1 <0>         0.0548
     63 H27         1.5615  -14.0022   -8.2616 H         1 <0>         0.0562
     64 H28         2.0555  -13.6506   -6.5881 H         1 <0>         0.0539
     65 H29        -0.8472  -13.8581   -8.9096 H         1 <0>         0.0550
     66 H30        -1.2668  -14.9898   -7.6014 H         1 <0>         0.0565
     67 H31        -2.0692  -13.4038   -7.6977 H         1 <0>         0.0553
     68 H32        -2.8608  -11.7469   -1.3026 H         1 <0>         0.0779
     69 H33        -4.2994  -11.7970   -2.3496 H         1 <0>         0.0653
     70 H34        -4.4015  -12.3740   -0.6689 H         1 <0>         0.0718
     71 H35        -4.9294  -14.6624   -0.8525 H         1 <0>         0.0689
     72 H36        -5.4007  -14.2559   -2.5201 H         1 <0>         0.0674
     73 H37        -4.3246  -15.6398   -2.2117 H         1 <0>         0.0704
@<TRIPOS>BOND
     1    1    2 1
     2    1   38 1
     3    1   39 1
     4    1   40 1
     5    2    7 ar
     6    2    3 ar
     7    3    4 ar
     8    3   41 1
     9    4    5 ar
    10    4   42 1
    11    5    6 ar
    12    5    9 1
    13    6    7 ar
    14    6   43 1
    15    7    8 1
    16    8   44 1
    17    8   45 1
    18    8   46 1
    19    9   14 am
    20    9   10 1
    21   10   11 1
    22   10   47 1
    23   10   48 1
    24   11   12 1
    25   11   13 1
    26   11   16 1
    27   13   14 1
    28   13   49 1
    29   13   50 1
    30   14   15 2
    31   16   17 2
    32   16   18 am
    33   18   19 1
    34   18   51 1
    35   19   24 ar
    36   19   20 ar
    37   20   21 ar
    38   20   52 1
    39   21   22 ar
    40   21   53 1
    41   22   30 1
    42   22   23 ar
    43   23   24 ar
    44   23   25 1
    45   24   54 1
    46   25   26 1
    47   26   27 1
    48   26   55 1
    49   26   56 1
    50   27   28 1
    51   27   36 1
    52   27   37 1
    53   28   29 2
    54   28   30 am
    55   30   31 1
    56   31   32 1
    57   31   57 1
    58   31   58 1
    59   32   33 1
    60   32   59 1
    61   32   60 1
    62   33   34 1
    63   33   35 1
    64   33   61 1
    65   34   62 1
    66   34   63 1
    67   34   64 1
    68   35   65 1
    69   35   66 1
    70   35   67 1
    71   36   68 1
    72   36   69 1
    73   36   70 1
    74   37   71 1
    75   37   72 1
    76   37   73 1
@<TRIPOS>MOLECULE
ZINC64746763
   66    70     0     0     0
SMALL
USER_CHARGES

@<TRIPOS>ATOM
      1 C1         -2.1958    1.4625    1.2890 C.3       1 <0>        -0.1061
      2 C2         -1.0167    0.6695    0.7870 C.ar      1 <0>        -0.0596
      3 C3         -0.9713    0.2559   -0.5286 C.ar      1 <0>        -0.1190
      4 C4          0.1104   -0.4721   -0.9909 C.ar      1 <0>        -0.1165
      5 C5          1.1530   -0.7902   -0.1384 C.ar      1 <0>        -0.1226
      6 C6          1.1194   -0.3826    1.1791 C.ar      1 <0>        -0.1131
      7 C7          0.0338    0.3569    1.6500 C.ar      1 <0>         0.0145
      8 C8         -0.0058    0.8028    3.0614 C.2       1 <0>        -0.0276
      9 C9          0.2124    0.0217    4.1569 C.2       1 <0>         0.3689
     10 N1          0.0819    0.8270    5.2785 N.pl3     1 <0>        -0.3376
     11 C10        -0.2140    2.0768    4.7938 C.2       1 <0>         0.1217
     12 N2         -0.2603    2.0650    3.4955 N.2       1 <0>        -0.3766
     13 S1         -0.3636    3.0386    6.2815 S.3       1 <0>         0.0905
     14 C11        -0.0259    1.7286    7.4470 C.2       1 <0>         0.3734
     15 N3          0.1674    0.7043    6.6619 N.2       1 <0>        -0.3390
     16 N4          0.0193    1.7852    8.8307 N.pl3     1 <0>        -0.5518
     17 C12         0.3240    0.5859    9.6257 C.3       1 <0>         0.1316
     18 C13        -0.7567    0.4267   10.7004 C.3       1 <0>         0.0399
     19 N5         -0.8633    1.6725   11.4714 N.3       1 <0>        -0.5311
     20 C14        -1.2949    2.7901   10.6213 C.3       1 <0>         0.0330
     21 C15        -0.2302    3.0475    9.5432 C.3       1 <0>         0.1313
     22 C16        -1.7645    1.5057   12.6194 C.3       1 <0>         0.0936
     23 C17        -1.6610    2.7106   13.5186 C.ar      1 <0>        -0.0828
     24 C18        -0.7286    2.7309   14.5410 C.ar      1 <0>        -0.0652
     25 C19        -0.6267    3.8329   15.3711 C.ar      1 <0>        -0.1175
     26 C20        -1.4551    4.9202   15.1842 C.ar      1 <0>        -0.0675
     27 C21        -2.3977    4.9067   14.1544 C.ar      1 <0>        -0.0260
     28 C22        -2.4918    3.7930   13.3171 C.ar      1 <0>        -0.0691
     29 C23        -3.2607    6.0318   13.9544 C.1       1 <0>         0.2477
     30 N6         -3.9454    6.9243   13.7959 N.1       1 <0>        -0.4092
     31 N7          0.5127   -1.3432    4.1511 N.pl3     1 <0>        -0.7138
     32 C24         0.6725   -2.0635    5.4167 C.3       1 <0>         0.1778
     33 C25        -0.6075   -1.9305    6.2443 C.3       1 <0>        -0.1644
     34 C26         0.9441   -3.5419    5.1314 C.3       1 <0>        -0.1537
     35 C27         1.8478   -1.4703    6.1962 C.3       1 <0>        -0.1642
     36 H1         -1.9749    2.5274    1.2164 H         1 <0>         0.0757
     37 H2         -3.0729    1.2314    0.6845 H         1 <0>         0.0592
     38 H3         -2.3925    1.2023    2.3290 H         1 <0>         0.0638
     39 H4         -1.7820    0.5008   -1.1988 H         1 <0>         0.1233
     40 H5          0.1412   -0.7938   -2.0214 H         1 <0>         0.1218
     41 H6          1.9945   -1.3591   -0.5051 H         1 <0>         0.1228
     42 H7          1.9333   -0.6321    1.8436 H         1 <0>         0.1196
     43 H8          0.3286   -0.2911    8.9784 H         1 <0>         0.0977
     44 H9          1.2986    0.6991   10.1005 H         1 <0>         0.0864
     45 H10        -1.7134    0.2103   10.2249 H         1 <0>         0.0451
     46 H11        -0.4883   -0.3922   11.3677 H         1 <0>         0.0971
     47 H12        -2.2440    2.5408   10.1470 H         1 <0>         0.0472
     48 H13        -1.4167    3.6852   11.2314 H         1 <0>         0.1000
     49 H14         0.6922    3.3928   10.0102 H         1 <0>         0.0942
     50 H15        -0.5921    3.7987    8.8413 H         1 <0>         0.0878
     51 H16        -2.7901    1.4043   12.2645 H         1 <0>         0.0504
     52 H17        -1.4826    0.6118   13.1758 H         1 <0>         0.0936
     53 H18        -0.0777    1.8823   14.6918 H         1 <0>         0.1328
     54 H19         0.1026    3.8418   16.1676 H         1 <0>         0.1360
     55 H20        -1.3748    5.7798   15.8332 H         1 <0>         0.1336
     56 H21        -3.2162    3.7775   12.5163 H         1 <0>         0.1295
     57 H22         0.6153   -1.8136    3.3090 H         1 <0>         0.4156
     58 H23        -1.4108   -2.4886    5.7633 H         1 <0>         0.0486
     59 H24        -0.4365   -2.3290    7.2444 H         1 <0>         0.0600
     60 H25        -0.8870   -0.8793    6.3149 H         1 <0>         0.0800
     61 H26         1.8559   -3.6366    4.5417 H         1 <0>         0.0623
     62 H27         1.0630   -4.0778    6.0730 H         1 <0>         0.0740
     63 H28         0.1068   -3.9645    4.5760 H         1 <0>         0.0620
     64 H29         1.7290   -0.3890    6.2655 H         1 <0>         0.0805
     65 H30         1.8720   -1.8981    7.1985 H         1 <0>         0.0601
     66 H31         2.7796   -1.7011    5.6801 H         1 <0>         0.0490
@<TRIPOS>BOND
     1    1    2 1
     2    1   36 1
     3    1   37 1
     4    1   38 1
     5    2    7 ar
     6    2    3 ar
     7    3    4 ar
     8    3   39 1
     9    4    5 ar
    10    4   40 1
    11    5    6 ar
    12    5   41 1
    13    6    7 ar
    14    6   42 1
    15    7    8 1
    16    8   12 1
    17    8    9 2
    18    9   10 1
    19    9   31 1
    20   10   15 1
    21   10   11 1
    22   11   12 2
    23   11   13 1
    24   13   14 1
    25   14   15 2
    26   14   16 1
    27   16   21 1
    28   16   17 1
    29   17   18 1
    30   17   43 1
    31   17   44 1
    32   18   19 1
    33   18   45 1
    34   18   46 1
    35   19   20 1
    36   19   22 1
    37   20   21 1
    38   20   47 1
    39   20   48 1
    40   21   49 1
    41   21   50 1
    42   22   23 1
    43   22   51 1
    44   22   52 1
    45   23   28 ar
    46   23   24 ar
    47   24   25 ar
    48   24   53 1
    49   25   26 ar
    50   25   54 1
    51   26   27 ar
    52   26   55 1
    53   27   28 ar
    54   27   29 1
    55   28   56 1
    56   29   30 3
    57   31   32 1
    58   31   57 1
    59   32   33 1
    60   32   34 1
    61   32   35 1
    62   33   58 1
    63   33   59 1
    64   33   60 1
    65   34   61 1
    66   34   62 1
    67   34   63 1
    68   35   64 1
    69   35   65 1
    70   35   66 1
@<TRIPOS>MOLECULE
ZINC13015699
   58    62     0     0     0
SMALL
USER_CHARGES
(3,4-dimethylphenyl)-[(6R,7R)-6-(4-methylsulfanylphenyl)-3-[(2S)-tetrahydrofuran-2-yl]-6,7-dihydro-5H-[1,2,4]triazolo[3,4-b][1,3,4]thiadiazin-7-yl]methanone
@<TRIPOS>ATOM
      1 C1          1.3948    5.1279    6.3249 C.3       1 <0>        -0.1260
      2 C2          1.9693    4.4055    5.1336 C.ar      1 <0>        -0.0499
      3 C3          1.5659    3.1115    4.8527 C.ar      1 <0>        -0.1253
      4 C4          2.0868    2.4440    3.7648 C.ar      1 <0>        -0.0768
      5 C5          3.0250    3.0779    2.9436 C.ar      1 <0>        -0.1610
      6 C6          3.4314    4.3832    3.2370 C.ar      1 <0>        -0.0520
      7 C7          2.8971    5.0395    4.3260 C.ar      1 <0>        -0.0953
      8 C8          3.3294    6.4484    4.6408 C.3       1 <0>        -0.1204
      9 C9          3.5860    2.3724    1.7802 C.2       1 <0>         0.4081
     10 O1          4.4731    2.8840    1.1308 O.2       1 <0>        -0.4041
     11 C10         3.0579    1.0143    1.3958 C.3       1 <0>        -0.1350
     12 H1          2.2980    0.7695    1.9980 H         1 <0>         0.1400
     13 C11         2.5839    1.0352   -0.0633 C.3       1 <0>         0.1312
     14 H2          2.4162    0.0130   -0.4024 H         1 <0>         0.0920
     15 N1          3.5900    1.6659   -0.9190 N.3       1 <0>        -0.4348
     16 N2          4.7943    1.0386   -0.8996 N.pl3     1 <0>        -0.2901
     17 C12         5.7831    1.1035   -1.8390 C.2       1 <0>         0.1772
     18 N3          6.7719    0.3658   -1.4138 N.2       1 <0>        -0.2548
     19 N4          6.4746   -0.1622   -0.2767 N.2       1 <0>        -0.2471
     20 C13         5.2771    0.2140    0.0767 C.2       1 <0>         0.1447
     21 S1          4.3820   -0.2242    1.5338 S.3       1 <0>         0.0740
     22 C14         5.7403    1.8827   -3.1282 C.3       1 <0>         0.1747
     23 H3          4.9301    2.6109   -3.0932 H         1 <0>         0.1000
     24 C15         5.5277    0.9193   -4.3156 C.3       1 <0>        -0.1475
     25 C16         6.4562    1.5290   -5.4032 C.3       1 <0>        -0.1524
     26 C17         7.6158    2.0722   -4.5308 C.3       1 <0>         0.0476
     27 O2          6.9890    2.5544   -3.3316 O.3       1 <0>        -0.3522
     28 C18         1.2942    1.8091   -0.1571 C.ar      1 <0>        -0.1100
     29 C19         0.0883    1.1350   -0.2214 C.ar      1 <0>        -0.0745
     30 C20        -1.0951    1.8407   -0.3128 C.ar      1 <0>        -0.1337
     31 C21        -1.0740    3.2302   -0.3290 C.ar      1 <0>        -0.0658
     32 C22         0.1396    3.9042   -0.2642 C.ar      1 <0>        -0.0966
     33 C23         1.3193    3.1918   -0.1783 C.ar      1 <0>        -0.0660
     34 S2         -2.5820    4.1350   -0.4382 S.3       1 <0>        -0.1071
     35 C24        -3.8614    2.8503   -0.4971 C.3       1 <0>        -0.1471
     36 H4          2.0165    4.9375    7.1998 H         1 <0>         0.0777
     37 H5          1.3698    6.1987    6.1231 H         1 <0>         0.0754
     38 H6          0.3827    4.7699    6.5135 H         1 <0>         0.0704
     39 H7          0.8413    2.6234    5.4878 H         1 <0>         0.1303
     40 H8          1.7715    1.4341    3.5473 H         1 <0>         0.1258
     41 H9          4.1588    4.8777    2.6102 H         1 <0>         0.1338
     42 H10         4.1940    6.4235    5.3040 H         1 <0>         0.0744
     43 H11         3.5949    6.9620    3.7168 H         1 <0>         0.0688
     44 H12         2.5119    6.9787    5.1293 H         1 <0>         0.0740
     45 H13         3.2497    1.7662   -1.8636 H         1 <0>         0.3779
     46 H14         5.8449   -0.0910   -4.0571 H         1 <0>         0.0872
     47 H15         4.4877    0.9290   -4.6417 H         1 <0>         0.0883
     48 H16         5.9555    2.3361   -5.9380 H         1 <0>         0.0832
     49 H17         6.8095    0.7633   -6.0938 H         1 <0>         0.0905
     50 H18         8.1263    2.8867   -5.0447 H         1 <0>         0.0934
     51 H19         8.3198    1.2742   -4.2952 H         1 <0>         0.0703
     52 H20         0.0725    0.0552   -0.2047 H         1 <0>         0.1312
     53 H21        -2.0361    1.3135   -0.3675 H         1 <0>         0.1297
     54 H22         0.1600    4.9839   -0.2807 H         1 <0>         0.1330
     55 H23         2.2628    3.7149   -0.1279 H         1 <0>         0.1365
     56 H24        -3.8103    2.2450    0.4079 H         1 <0>         0.0859
     57 H25        -4.8433    3.3184   -0.5662 H         1 <0>         0.1124
     58 H26        -3.6992    2.2157   -1.3683 H         1 <0>         0.0856
@<TRIPOS>BOND
     1    1    2 1
     2    1   36 1
     3    1   37 1
     4    1   38 1
     5    2    7 ar
     6    2    3 ar
     7    3    4 ar
     8    3   39 1
     9    4    5 ar
    10    4   40 1
    11    5    6 ar
    12    5    9 1
    13    6    7 ar
    14    6   41 1
    15    7    8 1
    16    8   42 1
    17    8   43 1
    18    8   44 1
    19    9   10 2
    20    9   11 1
    21   11   12 1
    22   11   21 1
    23   11   13 1
    24   13   14 1
    25   13   15 1
    26   13   28 1
    27   15   16 1
    28   15   45 1
    29   16   20 1
    30   16   17 1
    31   17   18 2
    32   17   22 1
    33   18   19 1
    34   19   20 2
    35   20   21 1
    36   22   23 1
    37   22   27 1
    38   22   24 1
    39   24   25 1
    40   24   46 1
    41   24   47 1
    42   25   26 1
    43   25   48 1
    44   25   49 1
    45   26   27 1
    46   26   50 1
    47   26   51 1
    48   28   33 ar
    49   28   29 ar
    50   29   30 ar
    51   29   52 1
    52   30   31 ar
    53   30   53 1
    54   31   32 ar
    55   31   34 1
    56   32   33 ar
    57   32   54 1
    58   33   55 1
    59   34   35 1
    60   35   56 1
    61   35   57 1
    62   35   58 1
@<TRIPOS>MOLECULE
ZINC21256734
   61    65     0     0     0
SMALL
USER_CHARGES
(4R,7S)-4-(1-naphthyl)-7-(3,4,5-trimethoxyphenyl)-1,3,4,6,7,8-hexahydroquinoline-2,5-dione
@<TRIPOS>ATOM
      1 C1          3.2851    5.6930   -2.8161 C.3       1 <0>         0.0203
      2 O1          2.7240    6.4020   -1.7095 O.3       1 <0>        -0.3009
      3 C2          2.1461    5.6580   -0.7286 C.ar      1 <0>         0.1540
      4 C3          2.1203    4.2753   -0.8300 C.ar      1 <0>        -0.2250
      5 C4          1.5323    3.5183    0.1661 C.ar      1 <0>        -0.0075
      6 C5          0.9635    4.1360    1.2641 C.ar      1 <0>        -0.2292
      7 C6          0.9906    5.5179    1.3760 C.ar      1 <0>         0.1543
      8 C7          1.5803    6.2826    0.3765 C.ar      1 <0>         0.0281
      9 O2          1.6033    7.6395    0.4795 O.3       1 <0>        -0.3127
     10 C8          0.4976    8.3513   -0.0799 C.3       1 <0>         0.0325
     11 O3          0.4356    6.1243    2.4593 O.3       1 <0>        -0.3006
     12 C9         -0.1527    5.2759    3.4473 C.3       1 <0>         0.0203
     13 C10         1.5061    2.0159    0.0516 C.3       1 <0>        -0.0371
     14 H1          2.0108    1.7349   -0.8845 H         1 <0>         0.0973
     15 C11         2.2258    1.3966    1.2518 C.3       1 <0>        -0.0933
     16 C12         2.1555   -0.1076    1.1639 C.2       1 <0>         0.2277
     17 C13         1.1052   -0.7179    0.5757 C.2       1 <0>        -0.2744
     18 C14         1.0534   -2.2259    0.5050 C.3       1 <0>         0.0022
     19 H2          0.0055   -2.5488    0.4177 H         1 <0>         0.1156
     20 C15         1.6859   -2.8157    1.7664 C.3       1 <0>        -0.1377
     21 C16         3.0108   -2.1423    2.0155 C.2       1 <0>         0.5278
     22 O4          3.9255   -2.7694    2.5057 O.2       1 <0>        -0.5036
     23 N1          3.1809   -0.8478    1.6951 N.am      1 <0>        -0.6736
     24 C17         1.8144   -2.6988   -0.7067 C.ar      1 <0>        -0.0614
     25 C18         3.1024   -2.3043   -0.9027 C.ar      1 <0>        -0.1226
     26 C19         3.8220   -2.7316   -2.0167 C.ar      1 <0>        -0.1137
     27 C20         3.2579   -3.5559   -2.9415 C.ar      1 <0>        -0.1056
     28 C21         1.9304   -3.9842   -2.7732 C.ar      1 <0>        -0.0497
     29 C22         1.2001   -3.5538   -1.6371 C.ar      1 <0>        -0.0399
     30 C23        -0.1259   -3.9871   -1.4657 C.ar      1 <0>        -0.1014
     31 C24        -0.6880   -4.8156   -2.3874 C.ar      1 <0>        -0.1155
     32 C25         0.0316   -5.2426   -3.5021 C.ar      1 <0>        -0.1135
     33 C26         1.3141   -4.8356   -3.7063 C.ar      1 <0>        -0.1090
     34 C27         0.0470    0.0207    0.0205 C.2       1 <0>         0.4074
     35 O5         -0.8887   -0.5643   -0.4877 O.2       1 <0>        -0.4613
     36 C28         0.0543    1.5258    0.0463 C.3       1 <0>        -0.1605
     37 H3          3.7162    6.4100   -3.5303 H         1 <0>         0.1058
     38 H4          2.4978    5.1079   -3.3139 H         1 <0>         0.0591
     39 H5          4.0732    5.0154   -2.4558 H         1 <0>         0.0597
     40 H6          2.5597    3.7892   -1.6884 H         1 <0>         0.1369
     41 H7          0.5012    3.5412    2.0380 H         1 <0>         0.1359
     42 H8          0.6423    9.4312    0.0715 H         1 <0>         0.0948
     43 H9         -0.4317    8.0329    0.4152 H         1 <0>         0.0453
     44 H10         0.4311    8.1377   -1.1569 H         1 <0>         0.0453
     45 H11        -0.5611    5.8911    4.2626 H         1 <0>         0.1059
     46 H12         0.6126    4.5957    3.8492 H         1 <0>         0.0590
     47 H13        -0.9625    4.6880    2.9906 H         1 <0>         0.0588
     48 H14         3.2791    1.7137    1.2513 H         1 <0>         0.0985
     49 H15         1.7427    1.7311    2.1817 H         1 <0>         0.1072
     50 H16         1.0184   -2.6474    2.6244 H         1 <0>         0.1127
     51 H17         1.8403   -3.8960    1.6284 H         1 <0>         0.1155
     52 H18         4.1634   -0.3835    1.8658 H         1 <0>         0.4409
     53 H19         3.5735   -1.6500   -0.1840 H         1 <0>         0.1207
     54 H20         4.8425   -2.4035   -2.1486 H         1 <0>         0.1215
     55 H21         3.8277   -3.8787   -3.8003 H         1 <0>         0.1268
     56 H22        -0.6959   -3.6638   -0.6072 H         1 <0>         0.1303
     57 H23        -1.7071   -5.1471   -2.2533 H         1 <0>         0.1237
     58 H24        -0.4383   -5.8999   -4.2187 H         1 <0>         0.1233
     59 H25         1.8594   -5.1746   -4.5748 H         1 <0>         0.1267
     60 H26        -0.4570    1.8844    0.9518 H         1 <0>         0.1051
     61 H27        -0.4609    1.9152   -0.8442 H         1 <0>         0.1031
@<TRIPOS>BOND
     1    1    2 1
     2    1   37 1
     3    1   38 1
     4    1   39 1
     5    2    3 1
     6    3    8 ar
     7    3    4 ar
     8    4    5 ar
     9    4   40 1
    10    5    6 ar
    11    5   13 1
    12    6    7 ar
    13    6   41 1
    14    7    8 ar
    15    7   11 1
    16    8    9 1
    17    9   10 1
    18   10   42 1
    19   10   43 1
    20   10   44 1
    21   11   12 1
    22   12   45 1
    23   12   46 1
    24   12   47 1
    25   13   14 1
    26   13   36 1
    27   13   15 1
    28   15   16 1
    29   15   48 1
    30   15   49 1
    31   16   23 1
    32   16   17 2
    33   17   18 1
    34   17   34 1
    35   18   19 1
    36   18   20 1
    37   18   24 1
    38   20   21 1
    39   20   50 1
    40   20   51 1
    41   21   22 2
    42   21   23 am
    43   23   52 1
    44   24   29 ar
    45   24   25 ar
    46   25   26 ar
    47   25   53 1
    48   26   27 ar
    49   26   54 1
    50   27   28 ar
    51   27   55 1
    52   28   33 ar
    53   28   29 ar
    54   29   30 ar
    55   30   31 ar
    56   30   56 1
    57   31   32 ar
    58   31   57 1
    59   32   33 ar
    60   32   58 1
    61   33   59 1
    62   34   35 2
    63   34   36 1
    64   36   60 1
    65   36   61 1
@<TRIPOS>MOLECULE
ZINC33351657
   56    59     0     0     0
SMALL
USER_CHARGES
(5E)-3-cyclohexyl-5-[[2-(isobutylamino)-4-oxo-pyrido[1,2-a]pyrimidin-3-yl]methylene]-2-thioxo-thiazolidin-4-one
@<TRIPOS>ATOM
      1 C1          5.5723   -2.0978    0.9647 C.3       1 <0>        -0.1468
      2 C2          4.1145   -1.6432    0.8689 C.3       1 <0>        -0.1096
      3 C3          3.3908   -1.9723    2.1761 C.3       1 <0>        -0.1520
      4 C4          4.0660   -0.1335    0.6251 C.3       1 <0>         0.1283
      5 N1          2.6772    0.2827    0.4146 N.pl3     1 <0>        -0.7015
      6 C5          2.3840    1.6073    0.1746 C.2       1 <0>         0.5181
      7 C6          1.0445    2.0148   -0.0294 C.2       1 <0>        -0.4029
      8 C7          0.7896    3.3847   -0.2776 C.2       1 <0>         0.5554
      9 O1         -0.3486    3.7795   -0.4634 O.2       1 <0>        -0.5235
     10 N2          1.8280    4.2478   -0.3003 N.am      1 <0>        -0.4347
     11 C8          1.5912    5.5700   -0.5330 C.2       1 <0>         0.1160
     12 C9          2.6085    6.4598   -0.5673 C.2       1 <0>        -0.1780
     13 C10         3.9264    6.0291   -0.3621 C.2       1 <0>        -0.0141
     14 C11         4.1737    4.7090   -0.1281 C.2       1 <0>        -0.1514
     15 C12         3.1027    3.7978   -0.0960 C.2       1 <0>         0.4434
     16 N3          3.3544    2.5087    0.1336 N.2       1 <0>        -0.5839
     17 C13        -0.0126    1.0758    0.0080 C.2       1 <0>         0.1569
     18 C14        -0.9511    1.1437    0.9966 C.2       1 <0>        -0.2457
     19 C15        -0.9929    1.9778    2.1501 C.2       1 <0>         0.5445
     20 O2         -0.1051    2.7817    2.3744 O.2       1 <0>        -0.4604
     21 N4         -2.0241    1.8584    2.9681 N.am      1 <0>        -0.5202
     22 C16        -3.0050    0.9612    2.7231 C.2       1 <0>         0.2896
     23 S1         -4.4132    0.6331    3.6398 S.2       1 <0>        -0.3425
     24 S2         -2.4582    0.2044    1.2001 S.3       1 <0>         0.0510
     25 C17        -2.1014    2.7051    4.1611 C.3       1 <0>         0.1230
     26 C18        -2.1264    1.8237    5.4114 C.3       1 <0>        -0.1464
     27 C19        -2.2071    2.7080    6.6573 C.3       1 <0>        -0.1093
     28 C20        -3.4825    3.5514    6.6023 C.3       1 <0>        -0.1230
     29 C21        -3.4575    4.4329    5.3520 C.3       1 <0>        -0.1092
     30 C22        -3.3768    3.5485    4.1061 C.3       1 <0>        -0.1471
     31 H1          6.0927   -1.8612    0.0249 H         1 <0>         0.0597
     32 H2          5.6071   -3.1832    1.1399 H         1 <0>         0.0627
     33 H3          6.0651   -1.5758    1.7982 H         1 <0>         0.0595
     34 H4          3.6216   -2.1652    0.0355 H         1 <0>         0.0785
     35 H5          2.3427   -1.6455    2.1073 H         1 <0>         0.0522
     36 H6          3.8837   -1.4503    3.0095 H         1 <0>         0.0587
     37 H7          3.4257   -3.0577    2.3513 H         1 <0>         0.0618
     38 H8          4.4780    0.3924    1.4990 H         1 <0>         0.0730
     39 H9          4.6619    0.1134   -0.2660 H         1 <0>         0.0739
     40 H10         1.8686   -0.4624    0.4482 H         1 <0>         0.4345
     41 H11         0.5788    5.9107   -0.6926 H         1 <0>         0.1822
     42 H12         2.4054    7.5040   -0.7536 H         1 <0>         0.1620
     43 H13         4.7405    6.7382   -0.3895 H         1 <0>         0.1564
     44 H14         5.1849    4.3653    0.0318 H         1 <0>         0.1681
     45 H15        -0.0783    0.2908   -0.7597 H         1 <0>         0.1482
     46 H16        -1.2101    3.3498    4.1594 H         1 <0>         0.1108
     47 H17        -3.0033    1.1606    5.3750 H         1 <0>         0.1048
     48 H18        -1.2095    1.2173    5.4509 H         1 <0>         0.0609
     49 H19        -2.2251    2.0742    7.5562 H         1 <0>         0.0713
     50 H20        -1.3302    3.3712    6.6937 H         1 <0>         0.0608
     51 H21        -4.3593    2.8882    6.5659 H         1 <0>         0.0716
     52 H22        -3.5406    4.1872    7.4981 H         1 <0>         0.0659
     53 H23        -4.3744    5.0393    5.3125 H         1 <0>         0.0715
     54 H24        -2.5806    5.0961    5.3884 H         1 <0>         0.0607
     55 H25        -3.3588    4.1822    3.2071 H         1 <0>         0.0623
     56 H26        -4.2537    2.8853    4.0697 H         1 <0>         0.1045
@<TRIPOS>BOND
     1    1    2 1
     2    1   31 1
     3    1   32 1
     4    1   33 1
     5    2    3 1
     6    2    4 1
     7    2   34 1
     8    3   35 1
     9    3   36 1
    10    3   37 1
    11    4    5 1
    12    4   38 1
    13    4   39 1
    14    5    6 1
    15    5   40 1
    16    6   16 1
    17    6    7 2
    18    7    8 1
    19    7   17 1
    20    8    9 2
    21    8   10 am
    22   10   15 1
    23   10   11 1
    24   11   12 2
    25   11   41 1
    26   12   13 1
    27   12   42 1
    28   13   14 2
    29   13   43 1
    30   14   15 1
    31   14   44 1
    32   15   16 2
    33   17   18 2
    34   17   45 1
    35   18   24 1
    36   18   19 1
    37   19   20 2
    38   19   21 am
    39   21   22 1
    40   21   25 1
    41   22   23 2
    42   22   24 1
    43   25   30 1
    44   25   26 1
    45   25   46 1
    46   26   27 1
    47   26   47 1
    48   26   48 1
    49   27   28 1
    50   27   49 1
    51   27   50 1
    52   28   29 1
    53   28   51 1
    54   28   52 1
    55   29   30 1
    56   29   53 1
    57   29   54 1
    58   30   55 1
    59   30   56 1
@<TRIPOS>MOLECULE
ZINC45713040
   55    58     0     0     0
SMALL
USER_CHARGES

@<TRIPOS>ATOM
      1 C1         -3.7410    0.3058    0.4680 C.3       1 <0>        -0.1174
      2 C2         -2.8963   -0.9378    0.3635 C.ar      1 <0>        -0.0840
      3 C3         -1.8483   -0.9865   -0.5373 C.ar      1 <0>        -0.1012
      4 C4         -1.0727   -2.1250   -0.6357 C.ar      1 <0>        -0.1031
      5 C5         -1.3458   -3.2213    0.1714 C.ar      1 <0>         0.1470
      6 C6         -2.3984   -3.1692    1.0753 C.ar      1 <0>        -0.1260
      7 C7         -3.1672   -2.0259    1.1727 C.ar      1 <0>        -0.0996
      8 N1         -0.5608   -4.3782    0.0736 N.pl3     1 <0>        -0.3187
      9 C8         -0.2235   -5.2067    1.0993 C.2       1 <0>         0.0995
     10 C9          0.5407   -6.2039    0.5850 C.2       1 <0>        -0.0091
     11 C10         0.6732   -5.9770   -0.7934 C.2       1 <0>         0.1020
     12 N2          0.0108   -4.8904   -1.0981 N.2       1 <0>        -0.2789
     13 C11         1.4427   -6.8408   -1.7592 C.3       1 <0>        -0.0724
     14 N3          1.1010   -7.2746    1.3063 N.am      1 <0>        -0.6472
     15 C12         0.5617   -8.5062    1.2118 C.2       1 <0>         0.5145
     16 O1         -0.3474   -8.7123    0.4356 O.2       1 <0>        -0.4857
     17 C13         1.0880   -9.6271    2.0705 C.3       1 <0>         0.0364
     18 O2          0.3602  -10.8244    1.7897 O.3       1 <0>        -0.2666
     19 C14         0.7118  -11.9357    2.4830 C.ar      1 <0>         0.2015
     20 C15         1.7317  -11.8757    3.4184 C.ar      1 <0>        -0.2187
     21 C16         2.0908  -13.0059    4.1249 C.ar      1 <0>        -0.0288
     22 C17         1.4344  -14.2067    3.9041 C.ar      1 <0>        -0.0744
     23 C18         0.4149  -14.2869    2.9763 C.ar      1 <0>         0.0061
     24 C19         0.0363  -13.1516    2.2568 C.ar      1 <0>        -0.2083
     25 C20        -1.0646  -13.4635    1.3367 C.2       1 <0>         0.4065
     26 O3         -1.6014  -12.6831    0.5790 O.2       1 <0>        -0.4194
     27 C21        -1.4119  -14.9238    1.4962 C.3       1 <0>        -0.1686
     28 C22        -0.4412  -15.4585    2.5583 C.3       1 <0>        -0.0530
     29 H1         -1.0047  -15.8342    3.4123 H         1 <0>         0.1047
     30 C23         0.4355  -16.5691    1.9763 C.3       1 <0>        -0.1483
     31 Cl1         1.8977  -15.6196    4.8000 Cl        1 <0>        -0.0584
     32 C24        -0.6248   -5.0460    2.5429 C.3       1 <0>        -0.0969
     33 H2         -3.3073    0.9785    1.2079 H         1 <0>         0.0743
     34 H3         -3.7748    0.8044   -0.5007 H         1 <0>         0.0698
     35 H4         -4.7517    0.0340    0.7723 H         1 <0>         0.0696
     36 H5         -1.6364   -0.1335   -1.1649 H         1 <0>         0.1335
     37 H6         -0.2548   -2.1627   -1.3400 H         1 <0>         0.1345
     38 H7         -2.6132   -4.0203    1.7045 H         1 <0>         0.1322
     39 H8         -3.9834   -1.9832    1.8787 H         1 <0>         0.1341
     40 H9          0.7543   -7.5081   -2.2778 H         1 <0>         0.0834
     41 H10         1.9522   -6.2081   -2.4860 H         1 <0>         0.0778
     42 H11         2.1782   -7.4309   -1.2125 H         1 <0>         0.0743
     43 H12         1.8753   -7.1263    1.8714 H         1 <0>         0.4070
     44 H13         2.1446   -9.7851    1.8544 H         1 <0>         0.1008
     45 H14         0.9673   -9.3668    3.1221 H         1 <0>         0.1009
     46 H15         2.2469  -10.9431    3.5950 H         1 <0>         0.1467
     47 H16         2.8871  -12.9544    4.8528 H         1 <0>         0.1470
     48 H17        -2.4441  -15.0322    1.8292 H         1 <0>         0.1130
     49 H18        -1.2603  -15.4530    0.5555 H         1 <0>         0.1133
     50 H19         1.1509  -16.8996    2.7293 H         1 <0>         0.0697
     51 H20        -0.1922  -17.4089    1.6782 H         1 <0>         0.0700
     52 H21         0.9724  -16.1901    1.1066 H         1 <0>         0.0609
     53 H22        -1.5667   -5.5659    2.7182 H         1 <0>         0.0860
     54 H23         0.1484   -5.4690    3.1842 H         1 <0>         0.0869
     55 H24        -0.7465   -3.9870    2.7705 H         1 <0>         0.0804
@<TRIPOS>BOND
     1    1    2 1
     2    1   33 1
     3    1   34 1
     4    1   35 1
     5    2    7 ar
     6    2    3 ar
     7    3    4 ar
     8    3   36 1
     9    4    5 ar
    10    4   37 1
    11    5    6 ar
    12    5    8 1
    13    6    7 ar
    14    6   38 1
    15    7   39 1
    16    8   12 1
    17    8    9 1
    18    9   10 2
    19    9   32 1
    20   10   11 1
    21   10   14 1
    22   11   12 2
    23   11   13 1
    24   13   40 1
    25   13   41 1
    26   13   42 1
    27   14   15 am
    28   14   43 1
    29   15   16 2
    30   15   17 1
    31   17   18 1
    32   17   44 1
    33   17   45 1
    34   18   19 1
    35   19   24 ar
    36   19   20 ar
    37   20   21 ar
    38   20   46 1
    39   21   22 ar
    40   21   47 1
    41   22   23 ar
    42   22   31 1
    43   23   28 1
    44   23   24 ar
    45   24   25 1
    46   25   26 2
    47   25   27 1
    48   27   28 1
    49   27   48 1
    50   27   49 1
    51   28   29 1
    52   28   30 1
    53   30   50 1
    54   30   51 1
    55   30   52 1
    56   32   53 1
    57   32   54 1
    58   32   55 1
@<TRIPOS>MOLECULE
ZINC60155150
   65    69     0     0     0
SMALL
USER_CHARGES

@<TRIPOS>ATOM
      1 C1         -0.1131    1.9894   -0.3456 C.3       1 <0>        -0.1542
      2 C2         -0.0564    0.5485   -0.8568 C.3       1 <0>        -0.1495
      3 C3          1.2605    0.3233   -1.6024 C.3       1 <0>         0.0894
      4 N1          1.3742   -1.0883   -1.9774 N.am      1 <0>        -0.6031
      5 C4          0.5720   -1.6197   -3.0821 C.3       1 <0>         0.1566
      6 H1         -0.0454   -0.8257   -3.5023 H         1 <0>         0.0922
      7 C5         -0.3235   -2.7542   -2.5708 C.3       1 <0>        -0.1332
      8 C6         -1.3112   -3.1237   -3.6756 C.3       1 <0>        -0.0765
      9 C7         -0.5864   -3.3717   -4.9725 C.ar      1 <0>        -0.0799
     10 C8         -1.2589   -4.0729   -5.9654 C.ar      1 <0>        -0.1185
     11 C9         -0.6518   -4.3273   -7.1775 C.ar      1 <0>        -0.1229
     12 C10         0.6363   -3.8805   -7.4074 C.ar      1 <0>        -0.1203
     13 C11         1.3065   -3.1861   -6.4220 C.ar      1 <0>        -0.1198
     14 C12         0.6982   -2.9320   -5.1992 C.ar      1 <0>        -0.0667
     15 C13         1.4933   -2.1813   -4.1630 C.3       1 <0>        -0.1001
     16 C14         2.2168   -1.8981   -1.3061 C.2       1 <0>         0.5608
     17 O1          2.3431   -3.0587   -1.6445 O.2       1 <0>        -0.5151
     18 C15         2.9876   -1.3748   -0.1580 C.ar      1 <0>        -0.1141
     19 C16         2.4113   -0.4409    0.7052 C.ar      1 <0>        -0.1023
     20 C17         3.1328    0.0460    1.7759 C.ar      1 <0>        -0.1078
     21 C18         4.4265   -0.3878    1.9982 C.ar      1 <0>        -0.1027
     22 C19         5.0092   -1.3167    1.1447 C.ar      1 <0>         0.1259
     23 C20         4.2906   -1.8166    0.0697 C.ar      1 <0>        -0.0440
     24 N2          6.3194   -1.7522    1.3739 N.am      1 <0>        -0.3671
     25 C21         6.5965   -3.0725    1.3692 C.2       1 <0>         0.5238
     26 O2          5.7127   -3.8887    1.2151 O.2       1 <0>        -0.4863
     27 C22         8.0351   -3.5171    1.5600 C.3       1 <0>        -0.0912
     28 H2          8.1854   -4.5277    1.1801 H         1 <0>         0.1350
     29 C23         8.3392   -3.4441    3.0612 C.3       1 <0>        -0.0860
     30 C24         9.8141   -3.4559    3.3147 C.2       1 <0>        -0.1607
     31 C25        10.7103   -3.1908    2.4204 C.2       1 <0>        -0.1417
     32 C26        10.3893   -2.8544    0.9951 C.3       1 <0>        -0.0765
     33 C27         8.9205   -2.5120    0.8121 C.3       1 <0>        -0.1090
     34 H3          8.6695   -2.5478   -0.2480 H         1 <0>         0.1142
     35 C28         8.6168   -1.1267    1.3113 C.2       1 <0>         0.5341
     36 O3          9.5018   -0.3084    1.4457 O.2       1 <0>        -0.5012
     37 N3          7.3354   -0.8128    1.6011 N.am      1 <0>        -0.5202
     38 H4          0.7226    2.1680    0.3310 H         1 <0>         0.0580
     39 H5         -0.0510    2.6769   -1.1891 H         1 <0>         0.0595
     40 H6         -1.0513    2.1498    0.1856 H         1 <0>         0.0617
     41 H7         -0.1185   -0.1391   -0.0133 H         1 <0>         0.0714
     42 H8         -0.8921    0.3698   -1.5334 H         1 <0>         0.0727
     43 H9          1.2796    0.9405   -2.5007 H         1 <0>         0.0792
     44 H10         2.0950    0.5960   -0.9564 H         1 <0>         0.0975
     45 H11         0.2886   -3.6208   -2.3207 H         1 <0>         0.0877
     46 H12        -0.8685   -2.4219   -1.6872 H         1 <0>         0.0688
     47 H13        -1.8517   -4.0255   -3.3877 H         1 <0>         0.0787
     48 H14        -2.0211   -2.3077   -3.8108 H         1 <0>         0.0757
     49 H15        -2.2651   -4.4220   -5.7866 H         1 <0>         0.1205
     50 H16        -1.1806   -4.8740   -7.9442 H         1 <0>         0.1214
     51 H17         1.1161   -4.0747   -8.3553 H         1 <0>         0.1214
     52 H18         2.3125   -2.8371   -6.6024 H         1 <0>         0.1192
     53 H19         2.0262   -1.3606   -4.6431 H         1 <0>         0.0723
     54 H20         2.2145   -2.8579   -3.7045 H         1 <0>         0.1028
     55 H21         1.4011   -0.0993    0.5347 H         1 <0>         0.1511
     56 H22         2.6854    0.7686    2.4423 H         1 <0>         0.1398
     57 H23         4.9863   -0.0032    2.8379 H         1 <0>         0.1324
     58 H24         4.7400   -2.5422   -0.5921 H         1 <0>         0.1388
     59 H25         7.9139   -2.5266    3.4678 H         1 <0>         0.0768
     60 H26         7.8839   -4.2997    3.5601 H         1 <0>         0.0902
     61 H27        10.1526   -3.7017    4.3104 H         1 <0>         0.1131
     62 H28        11.7484   -3.2125    2.7174 H         1 <0>         0.1154
     63 H29        10.9985   -2.0064    0.6826 H         1 <0>         0.0966
     64 H30        10.6232   -3.7122    0.3646 H         1 <0>         0.0916
     65 H31         7.1203    0.0589    1.9684 H         1 <0>         0.4243
@<TRIPOS>BOND
     1    1    2 1
     2    1   38 1
     3    1   39 1
     4    1   40 1
     5    2    3 1
     6    2   41 1
     7    2   42 1
     8    3    4 1
     9    3   43 1
    10    3   44 1
    11    4    5 1
    12    4   16 am
    13    5    6 1
    14    5   15 1
    15    5    7 1
    16    7    8 1
    17    7   45 1
    18    7   46 1
    19    8    9 1
    20    8   47 1
    21    8   48 1
    22    9   14 ar
    23    9   10 ar
    24   10   11 ar
    25   10   49 1
    26   11   12 ar
    27   11   50 1
    28   12   13 ar
    29   12   51 1
    30   13   14 ar
    31   13   52 1
    32   14   15 1
    33   15   53 1
    34   15   54 1
    35   16   17 2
    36   16   18 1
    37   18   23 ar
    38   18   19 ar
    39   19   20 ar
    40   19   55 1
    41   20   21 ar
    42   20   56 1
    43   21   22 ar
    44   21   57 1
    45   22   23 ar
    46   22   24 1
    47   23   58 1
    48   24   37 1
    49   24   25 am
    50   25   26 2
    51   25   27 1
    52   27   28 1
    53   27   33 1
    54   27   29 1
    55   29   30 1
    56   29   59 1
    57   29   60 1
    58   30   31 2
    59   30   61 1
    60   31   32 1
    61   31   62 1
    62   32   33 1
    63   32   63 1
    64   32   64 1
    65   33   34 1
    66   33   35 1
    67   35   36 2
    68   35   37 am
    69   37   65 1
@<TRIPOS>MOLECULE
ZINC08838869
   48    52     0     0     0
SMALL
USER_CHARGES
N-[(3-benzo[1,3]dioxol-5-yl-2-oxo-oxazolidin-5-yl)methyl]naphthalene-2-sulfonamide
@<TRIPOS>ATOM
      1 C1          9.9908   10.6435   -3.2574 C.ar      1 <0>        -0.0920
      2 C2          8.8655   10.0728   -3.8495 C.ar      1 <0>        -0.1202
      3 C3          8.7193    8.7215   -3.9185 C.ar      1 <0>        -0.0910
      4 C4          9.7155    7.8862   -3.3848 C.ar      1 <0>        -0.0797
      5 C5          9.6025    6.4865   -3.4428 C.ar      1 <0>         0.0149
      6 C6         10.5849    5.7091   -2.9113 C.ar      1 <0>        -0.6737
      7 C7         11.7099    6.2797   -2.3186 C.ar      1 <0>        -0.0440
      8 C8         11.8562    7.6310   -2.2496 C.ar      1 <0>        -0.1153
      9 C9         10.8597    8.4665   -2.7826 C.ar      1 <0>        -0.0115
     10 C10        10.9757    9.8661   -2.7305 C.ar      1 <0>        -0.1193
     11 S1         10.4359    3.9547   -2.9800 S.o2      1 <0>         2.6942
     12 O1         11.7548    3.4317   -2.9015 O.2       1 <0>        -0.9474
     13 O2          9.5640    3.6633   -4.0636 O.2       1 <0>        -0.9499
     14 N1          9.6538    3.4754   -1.6013 N.pl3     1 <0>        -1.1131
     15 C11         8.2656    3.8812   -1.3679 C.3       1 <0>         0.1064
     16 C12         7.6655    3.0263   -0.2499 C.3       1 <0>         0.0644
     17 H1          8.2589    3.1174    0.6599 H         1 <0>         0.1355
     18 C13         6.2033    3.4335    0.0159 C.3       1 <0>         0.0659
     19 N2          5.4398    2.2121   -0.2824 N.am      1 <0>        -0.5674
     20 C14         6.2925    1.2473   -0.6534 C.2       1 <0>         0.6444
     21 O3          5.9346    0.1258   -0.9548 O.2       1 <0>        -0.4911
     22 O4          7.5736    1.6329   -0.6657 O.3       1 <0>        -0.3046
     23 C15         4.0480    2.0777   -0.1881 C.ar      1 <0>         0.1932
     24 C16         3.2722    3.1559    0.2157 C.ar      1 <0>        -0.1448
     25 C17         1.8998    3.0249    0.3092 C.ar      1 <0>        -0.0692
     26 C18         1.2939    1.8180   -0.0005 C.ar      1 <0>         0.0105
     27 C19         2.0696    0.7346   -0.4060 C.ar      1 <0>         0.0682
     28 C20         3.4451    0.8668   -0.4988 C.ar      1 <0>        -0.1377
     29 O5          1.2451   -0.3257   -0.6496 O.3       1 <0>        -0.3034
     30 C21         0.0021   -0.0041    0.0020 C.3       1 <0>         0.2128
     31 O6         -0.0174    1.4356    0.0099 O.3       1 <0>        -0.3071
     32 H2         10.0823   11.7188   -3.2157 H         1 <0>         0.1294
     33 H3          8.0983   10.7125   -4.2602 H         1 <0>         0.1298
     34 H4          7.8419    8.2933   -4.3803 H         1 <0>         0.1343
     35 H5          8.7386    6.0303   -3.9032 H         1 <0>         0.1463
     36 H6         12.4772    5.6400   -1.9083 H         1 <0>         0.1409
     37 H7         12.7337    8.0591   -1.7879 H         1 <0>         0.1374
     38 H8         11.8418   10.3223   -2.2744 H         1 <0>         0.1333
     39 H9         10.1149    2.9261   -0.9482 H         1 <0>         0.4254
     40 H10         7.6878    3.7420   -2.2816 H         1 <0>         0.0961
     41 H11         8.2380    4.9313   -1.0769 H         1 <0>         0.0976
     42 H12         5.9046    4.2438   -0.6492 H         1 <0>         0.1099
     43 H13         6.0700    3.7234    1.0581 H         1 <0>         0.1127
     44 H14         3.7419    4.0979    0.4574 H         1 <0>         0.1428
     45 H15         1.2983    3.8649    0.6240 H         1 <0>         0.1443
     46 H16         4.0485    0.0278   -0.8126 H         1 <0>         0.1699
     47 H17        -0.0084   -0.3928    1.0203 H         1 <0>         0.0871
     48 H18        -0.8412   -0.3954   -0.5671 H         1 <0>         0.1347
@<TRIPOS>BOND
     1    1   10 ar
     2    1    2 ar
     3    1   32 1
     4    2    3 ar
     5    2   33 1
     6    3    4 ar
     7    3   34 1
     8    4    9 ar
     9    4    5 ar
    10    5    6 ar
    11    5   35 1
    12    6    7 ar
    13    6   11 1
    14    7    8 ar
    15    7   36 1
    16    8    9 ar
    17    8   37 1
    18    9   10 ar
    19   10   38 1
    20   11   12 2
    21   11   13 2
    22   11   14 1
    23   14   15 1
    24   14   39 1
    25   15   16 1
    26   15   40 1
    27   15   41 1
    28   16   17 1
    29   16   22 1
    30   16   18 1
    31   18   19 1
    32   18   42 1
    33   18   43 1
    34   19   20 am
    35   19   23 1
    36   20   21 2
    37   20   22 1
    38   23   28 ar
    39   23   24 ar
    40   24   25 ar
    41   24   44 1
    42   25   26 ar
    43   25   45 1
    44   26   31 1
    45   26   27 ar
    46   27   28 ar
    47   27   29 1
    48   28   46 1
    49   29   30 1
    50   30   31 1
    51   30   47 1
    52   30   48 1
@<TRIPOS>MOLECULE
ZINC15670175
   57    61     0     0     0
SMALL
USER_CHARGES
(4S)-4-(2,4-dimethylphenyl)-1-[5-(4-methoxyphenyl)-1,2,4-triazin-3-yl]-3-methyl-5,7-dihydro-4H-pyrazolo[4,5-e]pyridin-6-one
@<TRIPOS>ATOM
      1 C1         -3.1339    3.0103    4.4494 C.3       1 <0>        -0.1166
      2 C2         -2.2222    2.4978    3.3644 C.ar      1 <0>        -0.0793
      3 C3         -1.4472    3.3824    2.6376 C.ar      1 <0>        -0.1222
      4 C4         -0.6110    2.9124    1.6425 C.ar      1 <0>        -0.1020
      5 C5         -0.5497    1.5576    1.3739 C.ar      1 <0>        -0.0871
      6 C6         -1.3283    0.6738    2.0969 C.ar      1 <0>        -0.0699
      7 C7         -2.1605    1.1433    3.0962 C.ar      1 <0>        -0.1187
      8 C8         -1.2661   -0.8024    1.7999 C.3       1 <0>        -0.1209
      9 C9          0.3617    1.0452    0.2886 C.3       1 <0>         0.0363
     10 H1          0.1988   -0.0232    0.1464 H         1 <0>         0.1151
     11 C10         1.8216    1.2973    0.6787 C.3       1 <0>        -0.1342
     12 C11         2.1929    2.7418    0.4963 C.2       1 <0>         0.5347
     13 O1          2.9167    3.2703    1.3136 O.2       1 <0>        -0.5018
     14 N1          1.7460    3.4694   -0.5494 N.am      1 <0>        -0.6423
     15 C12         0.7498    2.9188   -1.3531 C.2       1 <0>         0.3515
     16 C13         0.0814    1.7776   -0.9991 C.2       1 <0>        -0.2534
     17 C14        -0.8269    1.4827   -2.0062 C.2       1 <0>         0.1389
     18 N2         -0.7268    2.4047   -2.9346 N.2       1 <0>        -0.2538
     19 N3          0.2584    3.3262   -2.5436 N.pl3     1 <0>        -0.3136
     20 C15         0.6573    4.4566   -3.2555 C.ar      1 <0>         0.5163
     21 N4          0.0838    4.7337   -4.4170 N.ar      1 <0>        -0.4674
     22 C16         0.4683    5.8155   -5.0934 C.ar      1 <0>         0.2503
     23 C17         1.4712    6.6248   -4.5474 C.ar      1 <0>        -0.0262
     24 N5          2.0023    6.2930   -3.3854 N.ar      1 <0>        -0.1414
     25 N6          1.6017    5.2430   -2.7586 N.ar      1 <0>        -0.3242
     26 C18        -0.1530    6.1547   -6.3953 C.ar      1 <0>        -0.1196
     27 C19        -1.2183    5.3962   -6.8801 C.ar      1 <0>        -0.0131
     28 C20        -1.7971    5.7172   -8.0892 C.ar      1 <0>        -0.2179
     29 C21        -1.3136    6.7882   -8.8296 C.ar      1 <0>         0.1644
     30 C22        -0.2495    7.5423   -8.3522 C.ar      1 <0>        -0.1572
     31 C23         0.3302    7.2296   -7.1413 C.ar      1 <0>        -0.0366
     32 O2         -1.8824    7.0985  -10.0233 O.3       1 <0>        -0.3105
     33 C24        -2.9728    6.2816  -10.4542 C.3       1 <0>         0.0225
     34 C25        -1.7674    0.3055   -2.0294 C.3       1 <0>        -0.0784
     35 H2         -4.1125    3.2354    4.0255 H         1 <0>         0.0706
     36 H3         -3.2395    2.2508    5.2241 H         1 <0>         0.0674
     37 H4         -2.7091    3.9154    4.8835 H         1 <0>         0.0660
     38 H5         -1.4954    4.4408    2.8472 H         1 <0>         0.1187
     39 H6         -0.0059    3.6035    1.0745 H         1 <0>         0.1106
     40 H7         -2.7657    0.4523    3.6641 H         1 <0>         0.1233
     41 H8         -0.4276   -1.2460    2.3369 H         1 <0>         0.0738
     42 H9         -2.1940   -1.2767    2.1194 H         1 <0>         0.0685
     43 H10        -1.1315   -0.9521    0.7287 H         1 <0>         0.0717
     44 H11         1.9648    1.0210    1.7233 H         1 <0>         0.1178
     45 H12         2.4693    0.6815    0.0547 H         1 <0>         0.1131
     46 H13         2.1081    4.3497   -0.7360 H         1 <0>         0.4276
     47 H14         1.8062    7.5086   -5.0699 H         1 <0>         0.1986
     48 H15        -1.5918    4.5605   -6.3069 H         1 <0>         0.1439
     49 H16        -2.6249    5.1330   -8.4630 H         1 <0>         0.1388
     50 H17         0.1240    8.3747   -8.9301 H         1 <0>         0.1437
     51 H18         1.1575    7.8166   -6.7704 H         1 <0>         0.1412
     52 H19        -3.3335    6.6367  -11.4196 H         1 <0>         0.1057
     53 H20        -2.6376    5.2488  -10.5492 H         1 <0>         0.0606
     54 H21        -3.7790    6.3361   -9.7227 H         1 <0>         0.0606
     55 H22        -2.7087    0.5831   -1.5550 H         1 <0>         0.0882
     56 H23        -1.9542    0.0099   -3.0618 H         1 <0>         0.0824
     57 H24        -1.3196   -0.5280   -1.4881 H         1 <0>         0.0856
@<TRIPOS>BOND
     1    1    2 1
     2    1   35 1
     3    1   36 1
     4    1   37 1
     5    2    7 ar
     6    2    3 ar
     7    3    4 ar
     8    3   38 1
     9    4    5 ar
    10    4   39 1
    11    5    6 ar
    12    5    9 1
    13    6    7 ar
    14    6    8 1
    15    7   40 1
    16    8   41 1
    17    8   42 1
    18    8   43 1
    19    9   10 1
    20    9   16 1
    21    9   11 1
    22   11   12 1
    23   11   44 1
    24   11   45 1
    25   12   13 2
    26   12   14 am
    27   14   15 1
    28   14   46 1
    29   15   19 1
    30   15   16 2
    31   16   17 1
    32   17   18 2
    33   17   34 1
    34   18   19 1
    35   19   20 1
    36   20   25 ar
    37   20   21 ar
    38   21   22 ar
    39   22   23 ar
    40   22   26 1
    41   23   24 ar
    42   23   47 1
    43   24   25 ar
    44   26   31 ar
    45   26   27 ar
    46   27   28 ar
    47   27   48 1
    48   28   29 ar
    49   28   49 1
    50   29   30 ar
    51   29   32 1
    52   30   31 ar
    53   30   50 1
    54   31   51 1
    55   32   33 1
    56   33   52 1
    57   33   53 1
    58   33   54 1
    59   34   55 1
    60   34   56 1
    61   34   57 1
@<TRIPOS>MOLECULE
ZINC23558300
   52    54     0     0     0
SMALL
USER_CHARGES
1-[2,4-dimethyl-5-[4-[2-nitro-4-(trifluoromethyl)phenyl]piperazine-1-carbonyl]-1H-pyrrol-3-yl]ethanone
@<TRIPOS>ATOM
      1 C1         -8.7448    5.2919    7.8394 C.3       1 <0>        -0.0919
      2 C2         -7.6786    6.1319    7.1848 C.2       1 <0>        -0.0385
      3 C3         -7.7398    7.5236    6.9321 C.2       1 <0>        -0.2574
      4 C4         -6.5501    7.8750    6.3133 C.2       1 <0>         0.0907
      5 N1         -5.7951    6.7731    6.1935 N.pl3     1 <0>        -0.5380
      6 H1         -4.8019    6.8352    5.7247 H         1 <0>         0.4479
      7 C5         -6.4719    5.6968    6.7259 C.2       1 <0>        -0.0485
      8 C6         -5.9787    4.3148    6.7830 C.2       1 <0>         0.5955
      9 O1         -6.3028    3.5909    7.7057 O.2       1 <0>        -0.5189
     10 N2         -5.1669    3.8484    5.8135 N.am      1 <0>        -0.6154
     11 C7         -4.8408    4.6733    4.6403 C.3       1 <0>         0.0991
     12 C8         -5.1104    3.8499    3.3763 C.3       1 <0>         0.0469
     13 N3         -4.3838    2.5761    3.4613 N.pl3     1 <0>        -0.4962
     14 C9         -4.8630    1.7634    4.5873 C.3       1 <0>         0.0470
     15 C10        -4.5833    2.5012    5.9009 C.3       1 <0>         0.1189
     16 C11        -4.4717    1.8686    2.2602 C.ar      1 <0>         0.1874
     17 C12        -5.7128    1.4867    1.7663 C.ar      1 <0>        -0.1507
     18 C13        -5.7964    0.7919    0.5759 C.ar      1 <0>        -0.0092
     19 C14        -4.6457    0.4662   -0.1188 C.ar      1 <0>        -0.1855
     20 C15        -3.4089    0.8447    0.3699 C.ar      1 <0>        -0.0017
     21 C16        -3.3184    1.5448    1.5571 C.ar      1 <0>        -0.0276
     22 N4         -1.9941    1.9491    2.0797 N.pl3     1 <0>         0.0267
     23 O2         -0.9832    1.6645    1.4628 O.2       1 <0>        -0.1831
     24 O3         -1.9151    2.5665    3.1267 O.3       1 <0>        -0.0901
     25 C17        -4.7405   -0.2976   -1.4144 C.3       1 <0>         0.5153
     26 F1         -4.6843   -1.6705   -1.1516 F         1 <0>        -0.1679
     27 F2         -3.6750    0.0619   -2.2467 F         1 <0>        -0.1688
     28 F3         -5.9502    0.0068   -2.0477 F         1 <0>        -0.1692
     29 C18        -6.1703    9.2589    5.8535 C.3       1 <0>        -0.1001
     30 C19        -8.8520    8.4215    7.2580 C.2       1 <0>         0.4353
     31 O4         -9.6990    8.6654    6.4244 O.2       1 <0>        -0.4525
     32 C20        -8.9432    9.0413    8.6286 C.3       1 <0>        -0.2007
     33 H2         -9.6039    5.9276    8.0998 H         1 <0>         0.0627
     34 H3         -8.3395    4.8311    8.7523 H         1 <0>         0.0829
     35 H4         -9.0692    4.5039    7.1439 H         1 <0>         0.0686
     36 H5         -5.4689    5.5763    4.6410 H         1 <0>         0.0979
     37 H6         -3.7807    4.9641    4.6797 H         1 <0>         0.0902
     38 H7         -6.1892    3.6530    3.2902 H         1 <0>         0.0539
     39 H8         -4.7684    4.4103    2.4937 H         1 <0>         0.0943
     40 H9         -5.9450    1.5946    4.4833 H         1 <0>         0.0531
     41 H10        -4.3396    0.7959    4.5901 H         1 <0>         0.0947
     42 H11        -3.4982    2.5815    6.0625 H         1 <0>         0.0891
     43 H12        -5.0399    1.9576    6.7412 H         1 <0>         0.1071
     44 H13        -6.6115    1.7369    2.3105 H         1 <0>         0.1566
     45 H14        -6.7612    0.4988    0.1890 H         1 <0>         0.1584
     46 H15        -2.5126    0.5929   -0.1775 H         1 <0>         0.1704
     47 H16        -5.1689    9.2323    5.3991 H         1 <0>         0.0743
     48 H17        -6.1640    9.9427    6.7151 H         1 <0>         0.0867
     49 H18        -6.9008    9.6118    5.1106 H         1 <0>         0.0875
     50 H19        -9.8376    9.6793    8.6837 H         1 <0>         0.0841
     51 H20        -8.0464    9.6501    8.8161 H         1 <0>         0.0934
     52 H21        -9.0121    8.2469    9.3864 H         1 <0>         0.0953
@<TRIPOS>BOND
     1    1    2 1
     2    1   33 1
     3    1   34 1
     4    1   35 1
     5    2    7 2
     6    2    3 1
     7    3    4 2
     8    3   30 1
     9    4    5 1
    10    4   29 1
    11    5    6 1
    12    5    7 1
    13    7    8 1
    14    8    9 2
    15    8   10 am
    16   10   15 1
    17   10   11 1
    18   11   12 1
    19   11   36 1
    20   11   37 1
    21   12   13 1
    22   12   38 1
    23   12   39 1
    24   13   14 1
    25   13   16 1
    26   14   15 1
    27   14   40 1
    28   14   41 1
    29   15   42 1
    30   15   43 1
    31   16   21 ar
    32   16   17 ar
    33   17   18 ar
    34   17   44 1
    35   18   19 ar
    36   18   45 1
    37   19   20 ar
    38   19   25 1
    39   20   21 ar
    40   20   46 1
    41   21   22 1
    42   22   23 2
    43   22   24 1
    44   25   26 1
    45   25   27 1
    46   25   28 1
    47   29   47 1
    48   29   48 1
    49   29   49 1
    50   30   31 2
    51   30   32 1
    52   32   50 1
    53   32   51 1
    54   32   52 1
@<TRIPOS>MOLECULE
ZINC39592610
   47    51     0     0     0
SMALL
USER_CHARGES

@<TRIPOS>ATOM
      1 C1         -0.0173    1.4248    0.0099 C.3       1 <0>         0.0271
      2 O1          0.0021   -0.0041    0.0020 O.3       1 <0>        -0.3062
      3 C2         -1.2002   -0.6374    0.0101 C.ar      1 <0>         0.1938
      4 C3         -2.3746    0.1019    0.0195 C.ar      1 <0>        -0.2373
      5 C4         -3.5974   -0.5415    0.0283 C.ar      1 <0>        -0.0194
      6 C5         -3.6542   -1.9221    0.0276 C.ar      1 <0>        -0.2397
      7 C6         -2.4827   -2.6659    0.0177 C.ar      1 <0>         0.1885
      8 C7         -1.2547   -2.0227    0.0032 C.ar      1 <0>        -0.1817
      9 C8          0.0190   -2.8280   -0.0134 C.3       1 <0>         0.1903
     10 H1          0.3515   -3.0243   -1.0327 H         1 <0>         0.1488
     11 N1         -0.1182   -4.0853    0.7691 N.3       1 <0>        -0.4395
     12 N2          0.9966   -4.4588    1.4590 N.pl3     1 <0>        -0.3523
     13 C9          1.5071   -5.6189    2.0139 C.2       1 <0>         0.2544
     14 N3          2.6280   -5.3231    2.6022 N.2       1 <0>        -0.2444
     15 N4          2.8865   -4.0711    2.4564 N.2       1 <0>        -0.2310
     16 C10         1.9447   -3.5148    1.7604 C.2       1 <0>         0.1494
     17 S1          1.3433   -2.0249    0.9902 S.3       1 <0>         0.0148
     18 C11         0.8744   -6.9851    1.9487 C.3       1 <0>         0.0527
     19 H2         -0.1707   -6.9098    1.6485 H         1 <0>         0.1686
     20 C12         1.6417   -7.8864    0.9978 C.2       1 <0>        -0.1281
     21 C13         2.0731   -8.8918    1.7836 C.2       1 <0>         0.0202
     22 N5          1.6627   -8.7017    3.0650 N.2       1 <0>        -0.1343
     23 N6          0.9950   -7.6762    3.2430 N.2       1 <0>        -0.1248
     24 C14         2.8818  -10.0444    1.3160 C.ar      1 <0>        -0.0434
     25 C15         3.2540  -10.1393   -0.0237 C.ar      1 <0>        -0.0700
     26 C16         4.0065  -11.2127   -0.4541 C.ar      1 <0>        -0.1533
     27 C17         4.3917  -12.1956    0.4432 C.ar      1 <0>         0.1119
     28 C18         4.0235  -12.1055    1.7759 C.ar      1 <0>        -0.1533
     29 C19         3.2764  -11.0324    2.2163 C.ar      1 <0>        -0.0546
     30 F1          5.1281  -13.2451    0.0174 F         1 <0>        -0.1352
     31 O2         -2.5393   -4.0237    0.0170 O.3       1 <0>        -0.3053
     32 C20        -3.8384   -4.6189    0.0268 C.3       1 <0>         0.0238
     33 H3          1.0053    1.8021    0.0021 H         1 <0>         0.1087
     34 H4         -0.5445    1.7859   -0.8732 H         1 <0>         0.0627
     35 H5         -0.5275    1.7763    0.9067 H         1 <0>         0.0630
     36 H6         -2.3327    1.1811    0.0204 H         1 <0>         0.1403
     37 H7         -4.5102    0.0356    0.0360 H         1 <0>         0.1370
     38 H8         -4.6111   -2.4227    0.0351 H         1 <0>         0.1397
     39 H9         -0.9233   -4.0473    1.3762 H         1 <0>         0.3811
     40 H10         1.8039   -7.7526   -0.0616 H         1 <0>         0.1799
     41 H11         2.9536   -9.3740   -0.7240 H         1 <0>         0.1347
     42 H12         4.2954  -11.2870   -1.4921 H         1 <0>         0.1418
     43 H13         4.3256  -12.8741    2.4719 H         1 <0>         0.1430
     44 H14         2.9936  -10.9607    3.2561 H         1 <0>         0.1469
     45 H15        -3.7406   -5.7045    0.0252 H         1 <0>         0.1068
     46 H16        -4.3756   -4.3039    0.9214 H         1 <0>         0.0613
     47 H17        -4.3897   -4.3024   -0.8585 H         1 <0>         0.0628
@<TRIPOS>BOND
     1    1    2 1
     2    1   33 1
     3    1   34 1
     4    1   35 1
     5    2    3 1
     6    3    8 ar
     7    3    4 ar
     8    4    5 ar
     9    4   36 1
    10    5    6 ar
    11    5   37 1
    12    6    7 ar
    13    6   38 1
    14    7    8 ar
    15    7   31 1
    16    8    9 1
    17    9   10 1
    18    9   17 1
    19    9   11 1
    20   11   12 1
    21   11   39 1
    22   12   16 1
    23   12   13 1
    24   13   14 2
    25   13   18 1
    26   14   15 1
    27   15   16 2
    28   16   17 1
    29   18   19 1
    30   18   23 1
    31   18   20 1
    32   20   21 2
    33   20   40 1
    34   21   22 1
    35   21   24 1
    36   22   23 2
    37   24   29 ar
    38   24   25 ar
    39   25   26 ar
    40   25   41 1
    41   26   27 ar
    42   26   42 1
    43   27   28 ar
    44   27   30 1
    45   28   29 ar
    46   28   43 1
    47   29   44 1
    48   31   32 1
    49   32   45 1
    50   32   46 1
    51   32   47 1
@<TRIPOS>MOLECULE
ZINC20213947
   52    54     0     0     0
SMALL
USER_CHARGES

@<TRIPOS>ATOM
      1 C1         -2.2621    0.8717    1.2512 C.3       1 <0>        -0.1237
      2 C2         -1.5688   -0.3052    0.6146 C.ar      1 <0>        -0.0798
      3 C3         -1.9254   -0.7132   -0.6557 C.ar      1 <0>        -0.1273
      4 C4         -1.2898   -1.7931   -1.2407 C.ar      1 <0>        -0.0999
      5 C5         -0.2951   -2.4676   -0.5566 C.ar      1 <0>        -0.1240
      6 C6          0.0664   -2.0648    0.7140 C.ar      1 <0>        -0.0307
      7 C7         -0.5664   -0.9772    1.3025 C.ar      1 <0>         0.1172
      8 N1         -0.1996   -0.5639    2.5852 N.pl3     1 <0>        -0.9250
      9 C8         -1.1459   -0.6957    3.6959 C.3       1 <0>         0.1039
     10 C9         -1.0301   -2.0743    4.2935 C.2       1 <0>         0.5140
     11 O1         -0.1637   -2.8313    3.9088 O.2       1 <0>        -0.4689
     12 N2         -1.8891   -2.4661    5.2553 N.am      1 <0>        -0.5872
     13 N3         -1.7814   -3.7477    5.8109 N.2       1 <0>        -0.1922
     14 C10        -2.6086   -4.1251    6.7371 C.2       1 <0>         0.1000
     15 C11        -2.4954   -5.4734    7.3216 C.ar      1 <0>        -0.0560
     16 C12        -3.3881   -5.8846    8.3149 C.ar      1 <0>        -0.0866
     17 C13        -3.2786   -7.1467    8.8587 C.ar      1 <0>        -0.1217
     18 C14        -2.2867   -8.0096    8.4265 C.ar      1 <0>        -0.0978
     19 C15        -1.3928   -7.6150    7.4414 C.ar      1 <0>         0.0412
     20 C16        -1.4959   -6.3499    6.8795 C.ar      1 <0>         0.0875
     21 O2         -0.6381   -5.9476    5.9041 O.3       1 <0>        -0.2652
     22 C17         0.5681   -6.7045    5.7551 C.3       1 <0>         0.0186
     23 C18         0.2051   -8.1955    5.7772 C.3       1 <0>         0.0195
     24 O3         -0.4230   -8.4799    7.0352 O.3       1 <0>        -0.3070
     25 S1          1.3048    0.0752    2.8507 S.o2      1 <0>         2.5948
     26 O4          1.6411   -0.3256    4.1719 O.2       1 <0>        -0.9395
     27 O5          2.0828   -0.3564    1.7426 O.2       1 <0>        -0.9304
     28 C19         1.0663    1.8722    2.7845 C.3       1 <0>        -0.6768
     29 C20         1.1501   -2.8008    1.4589 C.3       1 <0>        -0.1480
     30 H1         -1.6864    1.7780    1.0629 H         1 <0>         0.0724
     31 H2         -3.2596    0.9798    0.8253 H         1 <0>         0.0722
     32 H3         -2.3416    0.7087    2.3260 H         1 <0>         0.0695
     33 H4         -2.7019   -0.1886   -1.1927 H         1 <0>         0.1260
     34 H5         -1.5711   -2.1105   -2.2339 H         1 <0>         0.1253
     35 H6          0.1993   -3.3105   -1.0164 H         1 <0>         0.1265
     36 H7         -0.9188    0.0506    4.4572 H         1 <0>         0.1183
     37 H8         -2.1607   -0.5430    3.3286 H         1 <0>         0.1220
     38 H9         -2.5818   -1.8608    5.5628 H         1 <0>         0.3821
     39 H10        -3.3799   -3.4511    7.0796 H         1 <0>         0.1227
     40 H11        -4.1629   -5.2143    8.6565 H         1 <0>         0.1376
     41 H12        -3.9698   -7.4633    9.6258 H         1 <0>         0.1375
     42 H13        -2.2079   -8.9962    8.8588 H         1 <0>         0.1365
     43 H14         1.0434   -6.4558    4.8062 H         1 <0>         0.1238
     44 H15         1.2474   -6.4792    6.5773 H         1 <0>         0.0768
     45 H16        -0.4781   -8.4196    4.9581 H         1 <0>         0.0789
     46 H17         1.1095   -8.7955    5.6770 H         1 <0>         0.1225
     47 H18         0.4282    2.1847    3.6111 H         1 <0>         0.1280
     48 H19         2.0327    2.3701    2.8631 H         1 <0>         0.1326
     49 H20         0.5947    2.1415    1.8394 H         1 <0>         0.1309
     50 H21         2.1252   -2.4366    1.1353 H         1 <0>         0.0880
     51 H22         1.0355   -2.6302    2.5293 H         1 <0>         0.0990
     52 H23         1.0736   -3.8680    1.2508 H         1 <0>         0.0619
@<TRIPOS>BOND
     1    1    2 1
     2    1   30 1
     3    1   31 1
     4    1   32 1
     5    2    7 ar
     6    2    3 ar
     7    3    4 ar
     8    3   33 1
     9    4    5 ar
    10    4   34 1
    11    5    6 ar
    12    5   35 1
    13    6    7 ar
    14    6   29 1
    15    7    8 1
    16    8    9 1
    17    8   25 1
    18    9   10 1
    19    9   36 1
    20    9   37 1
    21   10   11 2
    22   10   12 am
    23   12   13 1
    24   12   38 1
    25   13   14 2
    26   14   15 1
    27   14   39 1
    28   15   20 ar
    29   15   16 ar
    30   16   17 ar
    31   16   40 1
    32   17   18 ar
    33   17   41 1
    34   18   19 ar
    35   18   42 1
    36   19   24 1
    37   19   20 ar
    38   20   21 1
    39   21   22 1
    40   22   23 1
    41   22   43 1
    42   22   44 1
    43   23   24 1
    44   23   45 1
    45   23   46 1
    46   25   26 2
    47   25   27 2
    48   25   28 1
    49   28   47 1
    50   28   48 1
    51   28   49 1
    52   29   50 1
    53   29   51 1
    54   29   52 1
@<TRIPOS>MOLECULE
ZINC39037389
   51    53     0     0     0
SMALL
USER_CHARGES

@<TRIPOS>ATOM
      1 C1         -0.0184    1.5028    0.0103 C.3       1 <0>        -0.1235
      2 C2          0.0021   -0.0041    0.0020 C.2       1 <0>         0.1856
      3 C3         -1.1513   -0.7338    0.0038 C.2       1 <0>        -0.3342
      4 S1         -0.5240   -2.4034   -0.0091 S.3       1 <0>         0.2818
      5 C4          1.1210   -2.0544   -0.0156 C.2       1 <0>         0.3468
      6 N1          2.1456   -2.9059   -0.0259 N.2       1 <0>        -0.5928
      7 C5          3.3915   -2.4458   -0.0302 C.2       1 <0>         0.4894
      8 O1          3.5971   -1.2471   -0.0248 O.2       1 <0>        -0.5580
      9 C6          4.5505   -3.4090   -0.0419 C.3       1 <0>        -0.1097
     10 C7          5.8647   -2.6256   -0.0448 C.3       1 <0>        -0.1179
     11 H1          5.8858   -1.9357    0.7988 H         1 <0>         0.1264
     12 C8          7.0475   -3.5945    0.0465 C.3       1 <0>        -0.0270
     13 H2          6.8400   -4.3488    0.8055 H         1 <0>         0.1093
     14 C9          7.2611   -4.2691   -1.2850 C.ar      1 <0>        -0.2177
     15 C10         6.7683   -3.7346   -2.4619 C.ar      1 <0>         0.2016
     16 C11         6.9985   -4.3854   -3.6689 C.ar      1 <0>        -0.2029
     17 C12         7.7141   -5.5713   -3.6979 C.ar      1 <0>         0.2017
     18 C13         8.2029   -6.1112   -2.5180 C.ar      1 <0>        -0.3142
     19 C14         7.9771   -5.4614   -1.3158 C.ar      1 <0>         0.2088
     20 O2          8.4577   -5.9912   -0.1604 O.3       1 <0>        -0.3040
     21 C15         9.1843   -7.2175   -0.2620 C.3       1 <0>         0.0241
     22 O3          7.9368   -6.2037   -4.8800 O.3       1 <0>        -0.3064
     23 C16         8.6823   -7.4220   -4.8336 C.3       1 <0>         0.0252
     24 O4          6.0445   -2.5820   -2.4788 O.3       1 <0>        -0.2938
     25 C17         6.0012   -1.8550   -1.3429 C.2       1 <0>         0.4984
     26 O5          6.0688   -0.6487   -1.3587 O.2       1 <0>        -0.4138
     27 C18         8.3101   -2.8206    0.4308 C.3       1 <0>        -0.1468
     28 N2          1.1553   -0.6905   -0.0132 N.pl3     1 <0>        -0.6100
     29 H3          2.0045   -0.2218   -0.0188 H         1 <0>         0.4367
     30 C19        -2.4922   -0.2840    0.0134 C.2       1 <0>         0.4414
     31 O6         -3.4023   -1.0880    0.0135 O.2       1 <0>        -0.4548
     32 C20        -2.7915    1.1929    0.0235 C.3       1 <0>        -0.1964
     33 H4          1.0042    1.8801    0.0026 H         1 <0>         0.0850
     34 H5         -0.5455    1.8639   -0.8728 H         1 <0>         0.1096
     35 H6         -0.5286    1.8543    0.9071 H         1 <0>         0.1095
     36 H7          4.5064   -4.0412    0.8449 H         1 <0>         0.1207
     37 H8          4.4966   -4.0315   -0.9350 H         1 <0>         0.1072
     38 H9          6.6176   -3.9646   -4.5877 H         1 <0>         0.1472
     39 H10         8.7588   -7.0369   -2.5363 H         1 <0>         0.1424
     40 H11         8.5418   -7.9860   -0.6916 H         1 <0>         0.0589
     41 H12        10.0547   -7.0722   -0.9018 H         1 <0>         0.0581
     42 H13         9.5107   -7.5297    0.7301 H         1 <0>         0.1059
     43 H14         8.7876   -7.8220   -5.8420 H         1 <0>         0.1060
     44 H15         9.6697   -7.2280   -4.4146 H         1 <0>         0.0582
     45 H16         8.1581   -8.1451   -4.2088 H         1 <0>         0.0588
     46 H17         8.1603   -2.3372    1.3962 H         1 <0>         0.0675
     47 H18         9.1526   -3.5091    0.4961 H         1 <0>         0.0710
     48 H19         8.5171   -2.0640   -0.3261 H         1 <0>         0.0519
     49 H20        -2.3648    1.6562   -0.8661 H         1 <0>         0.0980
     50 H21        -3.8709    1.3449    0.0300 H         1 <0>         0.0933
     51 H22        -2.3555    1.6459    0.9138 H         1 <0>         0.0979
@<TRIPOS>BOND
     1    1    2 1
     2    1   33 1
     3    1   34 1
     4    1   35 1
     5    2   28 1
     6    2    3 2
     7    3    4 1
     8    3   30 1
     9    4    5 1
    10    5    6 2
    11    5   28 1
    12    6    7 1
    13    7    8 2
    14    7    9 1
    15    9   10 1
    16    9   36 1
    17    9   37 1
    18   10   11 1
    19   10   25 1
    20   10   12 1
    21   12   13 1
    22   12   14 1
    23   12   27 1
    24   14   19 ar
    25   14   15 ar
    26   15   16 ar
    27   15   24 1
    28   16   17 ar
    29   16   38 1
    30   17   18 ar
    31   17   22 1
    32   18   19 ar
    33   18   39 1
    34   19   20 1
    35   20   21 1
    36   21   40 1
    37   21   41 1
    38   21   42 1
    39   22   23 1
    40   23   43 1
    41   23   44 1
    42   23   45 1
    43   24   25 1
    44   25   26 2
    45   27   46 1
    46   27   47 1
    47   27   48 1
    48   28   29 1
    49   30   31 2
    50   30   32 1
    51   32   49 1
    52   32   50 1
    53   32   51 1
@<TRIPOS>MOLECULE
ZINC32999844
   42    44     0     0     0
SMALL
USER_CHARGES

@<TRIPOS>ATOM
      1 C1         -0.0169    1.3919    0.0097 C.ar      1 <0>        -0.0393
      2 C2          1.1695    2.0948    0.0021 C.ar      1 <0>        -0.1159
      3 C3          2.3782    1.4186   -0.0130 C.ar      1 <0>        -0.0064
      4 C4          2.4034    0.0338   -0.0207 C.ar      1 <0>        -0.1151
      5 C5          1.2236   -0.6800   -0.0137 C.ar      1 <0>        -0.0719
      6 C6          0.0021   -0.0041    0.0020 C.ar      1 <0>        -0.1278
      7 C7         -1.2659   -0.7632    0.0105 C.2       1 <0>         0.5649
      8 O1         -2.3280   -0.1722    0.0243 O.2       1 <0>        -0.5280
      9 N1         -1.2445   -2.1108    0.0031 N.am      1 <0>        -0.5170
     10 N2         -2.4465   -2.8305    0.0112 N.am      1 <0>        -0.5152
     11 C8         -2.4252   -4.1781    0.0037 C.2       1 <0>         0.5036
     12 O2         -1.3654   -4.7677   -0.0100 O.2       1 <0>        -0.5245
     13 C9         -3.7181   -4.9522    0.0124 C.3       1 <0>         0.1113
     14 N3         -3.4276   -6.3881    0.0018 N.am      1 <0>        -0.5642
     15 C10        -3.2829   -7.1252   -1.1205 C.2       1 <0>         0.5405
     16 O3         -3.3650   -6.7421   -2.2678 O.2       1 <0>        -0.4541
     17 C11        -2.9970   -8.5259   -0.6423 C.3       1 <0>         0.1192
     18 C12        -1.6342   -9.0147   -1.1505 C.3       1 <0>        -0.1198
     19 C13        -1.8504  -10.5290   -1.4054 C.3       1 <0>        -0.1228
     20 C14        -3.2966  -10.5823   -1.9596 C.3       1 <0>        -0.1235
     21 C15        -4.0550   -9.5113   -1.1444 C.3       1 <0>        -0.1186
     22 N4         -3.0115   -8.4246    0.8184 N.am      1 <0>        -0.7120
     23 C16        -3.2669   -7.1319    1.1039 C.2       1 <0>         0.7086
     24 O4         -3.3458   -6.6919    2.2341 O.2       1 <0>        -0.5358
     25 Cl1         3.8676    2.3104   -0.0230 Cl        1 <0>        -0.0544
     26 H1         -0.9587    1.9202    0.0260 H         1 <0>         0.1503
     27 H2          1.1561    3.1747    0.0077 H         1 <0>         0.1460
     28 H3          3.3489   -0.4880   -0.0325 H         1 <0>         0.1446
     29 H4          1.2444   -1.7598   -0.0204 H         1 <0>         0.1365
     30 H5         -0.3969   -2.5824   -0.0079 H         1 <0>         0.4325
     31 H6         -3.2941   -2.3589    0.0221 H         1 <0>         0.4364
     32 H7         -4.2849   -4.7028    0.9094 H         1 <0>         0.1381
     33 H8         -4.3026   -4.6932   -0.8704 H         1 <0>         0.1357
     34 H9         -1.3666   -8.5057   -2.0764 H         1 <0>         0.0903
     35 H10        -0.8660   -8.8606   -0.3927 H         1 <0>         0.0865
     36 H11        -1.1402  -10.9014   -2.1436 H         1 <0>         0.0794
     37 H12        -1.7726  -11.0919   -0.4752 H         1 <0>         0.0735
     38 H13        -3.3079  -10.3329   -3.0206 H         1 <0>         0.0762
     39 H14        -3.7326  -11.5674   -1.7937 H         1 <0>         0.0775
     40 H15        -4.5655   -9.9750   -0.3004 H         1 <0>         0.0888
     41 H16        -4.7745   -8.9961   -1.7809 H         1 <0>         0.0831
     42 H17        -2.8638   -9.1429    1.4533 H         1 <0>         0.4427
@<TRIPOS>BOND
     1    1    6 ar
     2    1    2 ar
     3    1   26 1
     4    2    3 ar
     5    2   27 1
     6    3    4 ar
     7    3   25 1
     8    4    5 ar
     9    4   28 1
    10    5    6 ar
    11    5   29 1
    12    6    7 1
    13    7    8 2
    14    7    9 am
    15    9   10 1
    16    9   30 1
    17   10   11 am
    18   10   31 1
    19   11   12 2
    20   11   13 1
    21   13   14 1
    22   13   32 1
    23   13   33 1
    24   14   23 am
    25   14   15 am
    26   15   16 2
    27   15   17 1
    28   17   21 1
    29   17   18 1
    30   17   22 1
    31   18   19 1
    32   18   34 1
    33   18   35 1
    34   19   20 1
    35   19   36 1
    36   19   37 1
    37   20   21 1
    38   20   38 1
    39   20   39 1
    40   21   40 1
    41   21   41 1
    42   22   23 am
    43   22   42 1
    44   23   24 2
@<TRIPOS>MOLECULE
ZINC52964426
   44    46     0     0     0
SMALL
USER_CHARGES

@<TRIPOS>ATOM
      1 C1          0.5394    1.6348   -0.0358 C.3       1 <0>        -0.1591
      2 C2          0.7291    0.1171   -0.0758 C.3       1 <0>        -0.1179
      3 C3          1.4050   -0.3467    1.2161 C.3       1 <0>         0.1730
      4 C4          0.5575    0.0133    2.4203 C.2       1 <0>         0.5423
      5 O1         -0.5666   -0.3689    2.6653 O.2       1 <0>        -0.4464
      6 N1          1.3139    0.8462    3.1622 N.am      1 <0>        -0.5619
      7 C5          2.5090    1.0601    2.6001 C.2       1 <0>         0.7126
      8 O2          3.3646    1.7755    3.0833 O.2       1 <0>        -0.5400
      9 N2          2.6580    0.3947    1.4405 N.am      1 <0>        -0.7131
     10 C6          0.8808    1.4440    4.4276 C.3       1 <0>         0.1032
     11 C7          1.2631    0.5368    5.5686 C.2       1 <0>         0.5079
     12 O3          1.8406   -0.5065    5.3467 O.2       1 <0>        -0.4986
     13 N3          0.9633    0.8848    6.8357 N.am      1 <0>        -0.6589
     14 C8          1.2243   -0.0060    7.8886 C.2       1 <0>        -0.0205
     15 C9          2.0368    0.3586    8.9113 C.2       1 <0>         0.1207
     16 N4          2.2920   -0.5009    9.9313 N.pl3     1 <0>        -0.5818
     17 C10         1.7488   -1.7415    9.9640 C.2       1 <0>         0.1324
     18 C11         0.9302   -2.1655    8.9752 C.2       1 <0>        -0.2785
     19 C12         0.6367   -1.2978    7.8997 C.2       1 <0>         0.3897
     20 O4         -0.1042   -1.6541    6.9946 O.2       1 <0>        -0.5005
     21 C13         1.6671   -1.8301    1.1725 C.ar      1 <0>        -0.1019
     22 C14         0.8322   -2.6584    0.4461 C.ar      1 <0>        -0.0926
     23 C15         1.0726   -4.0191    0.4062 C.ar      1 <0>        -0.1195
     24 C16         2.1481   -4.5514    1.0922 C.ar      1 <0>        -0.1060
     25 C17         2.9836   -3.7229    1.8179 C.ar      1 <0>        -0.1176
     26 C18         2.7457   -2.3617    1.8544 C.ar      1 <0>        -0.0896
     27 H1          1.5108    2.1199    0.0605 H         1 <0>         0.0623
     28 H2          0.0579    1.9652   -0.9562 H         1 <0>         0.0713
     29 H3         -0.0855    1.9005    0.8168 H         1 <0>         0.0520
     30 H4         -0.2422   -0.3680   -0.1721 H         1 <0>         0.0934
     31 H5          1.3540   -0.1486   -0.9284 H         1 <0>         0.0916
     32 H6          3.4385    0.4014    0.8645 H         1 <0>         0.4418
     33 H7          1.3638    2.4126    4.5560 H         1 <0>         0.1302
     34 H8         -0.2011    1.5763    4.4154 H         1 <0>         0.1290
     35 H9          0.5671    1.7508    7.0201 H         1 <0>         0.4078
     36 H10         2.4853    1.3411    8.9144 H         1 <0>         0.1672
     37 H11         1.9729   -2.4002   10.7900 H         1 <0>         0.1689
     38 H12         0.5018   -3.1564    9.0091 H         1 <0>         0.1508
     39 H13         2.8766   -0.2202   10.6527 H         1 <0>         0.4249
     40 H14        -0.0082   -2.2425   -0.0899 H         1 <0>         0.1300
     41 H15         0.4199   -4.6664   -0.1608 H         1 <0>         0.1283
     42 H16         2.3356   -5.6146    1.0616 H         1 <0>         0.1257
     43 H17         3.8237   -4.1388    2.3542 H         1 <0>         0.1254
     44 H18         3.4005   -1.7139    2.4183 H         1 <0>         0.1221
@<TRIPOS>BOND
     1    1    2 1
     2    1   27 1
     3    1   28 1
     4    1   29 1
     5    2    3 1
     6    2   30 1
     7    2   31 1
     8    3    9 1
     9    3    4 1
    10    3   21 1
    11    4    5 2
    12    4    6 am
    13    6    7 am
    14    6   10 1
    15    7    8 2
    16    7    9 am
    17    9   32 1
    18   10   11 1
    19   10   33 1
    20   10   34 1
    21   11   12 2
    22   11   13 am
    23   13   35 1
    24   13   14 1
    25   14   19 1
    26   14   15 2
    27   15   36 1
    28   15   16 1
    29   16   39 1
    30   16   17 1
    31   17   37 1
    32   17   18 2
    33   18   19 1
    34   18   38 1
    35   19   20 2
    36   21   26 ar
    37   21   22 ar
    38   22   23 ar
    39   22   40 1
    40   23   24 ar
    41   23   41 1
    42   24   25 ar
    43   24   42 1
    44   25   26 ar
    45   25   43 1
    46   26   44 1
@<TRIPOS>MOLECULE
ZINC49052137
   45    46     0     0     0
SMALL
USER_CHARGES

@<TRIPOS>ATOM
      1 C1         -0.0247    1.5340   -0.0112 C.3       1 <0>        -0.1668
      2 C2          0.0011    0.0042   -0.0122 C.3       1 <0>         0.1125
      3 N1          0.6822   -0.4719   -1.2187 N.am      1 <0>        -0.7237
      4 C3          0.8245   -1.7946   -1.4347 C.2       1 <0>         0.5097
      5 O1          0.3887   -2.5908   -0.6302 O.2       1 <0>        -0.5280
      6 C4          1.5251   -2.2844   -2.6758 C.3       1 <0>         0.1235
      7 C5          0.7771   -1.7861   -3.9140 C.3       1 <0>        -0.1622
      8 N2          1.5498   -3.7492   -2.6768 N.am      1 <0>        -0.6812
      9 C6          2.5072   -4.4066   -3.3607 C.2       1 <0>         0.5182
     10 O2          3.3489   -3.7850   -3.9757 O.2       1 <0>        -0.5139
     11 C7          2.5324   -5.8997   -3.3617 C.2       1 <0>         0.5091
     12 O3          1.6906   -6.5213   -2.7465 O.2       1 <0>        -0.4891
     13 N3          3.4898   -6.5570   -4.0456 N.am      1 <0>        -0.6386
     14 C8          3.5719   -7.9510   -3.9687 C.ar      1 <0>         0.1461
     15 C9          4.8124   -8.5761   -3.9899 C.ar      1 <0>        -0.1260
     16 C10         4.8948   -9.9530   -3.9145 C.ar      1 <0>        -0.0823
     17 C11         3.7411  -10.7146   -3.8175 C.ar      1 <0>         0.0239
     18 C12         2.4956  -10.0908   -3.7956 C.ar      1 <0>         0.0537
     19 C13         2.4138   -8.7104   -3.8654 C.ar      1 <0>        -0.1038
     20 O4          1.5291  -11.0497   -3.6961 O.3       1 <0>        -0.2954
     21 C14         2.1713  -12.2833   -4.0689 C.3       1 <0>         0.2552
     22 O5          3.5539  -12.0648   -3.7316 O.3       1 <0>        -0.2973
     23 C15         1.5996  -13.4518   -3.2635 C.3       1 <0>        -0.1471
     24 C16         2.0177  -12.5370   -5.5699 C.3       1 <0>        -0.1845
     25 H1          0.9966    1.9146   -0.0260 H         1 <0>         0.0634
     26 H2         -0.5576    1.8890   -0.8933 H         1 <0>         0.0634
     27 H3         -0.5315    1.8882    0.8865 H         1 <0>         0.0771
     28 H4          0.5340   -0.3508    0.8699 H         1 <0>         0.0706
     29 H5         -1.0202   -0.3764    0.0026 H         1 <0>         0.0710
     30 H6          1.0307    0.1648   -1.8621 H         1 <0>         0.4040
     31 H7          2.5464   -1.9038   -2.6906 H         1 <0>         0.1224
     32 H8          0.7587   -0.6963   -3.9132 H         1 <0>         0.0773
     33 H9          1.2838   -2.1403   -4.8116 H         1 <0>         0.0786
     34 H10        -0.2442   -2.1667   -3.8991 H         1 <0>         0.0688
     35 H11         0.8771   -4.2459   -2.1852 H         1 <0>         0.4243
     36 H12         4.1219   -6.0633   -4.5911 H         1 <0>         0.4270
     37 H13         5.7131   -7.9851   -4.0658 H         1 <0>         0.1451
     38 H14         5.8602  -10.4368   -3.9315 H         1 <0>         0.1429
     39 H15         1.4494   -8.2247   -3.8444 H         1 <0>         0.1517
     40 H16         0.5327  -13.5453   -3.4663 H         1 <0>         0.0899
     41 H17         2.1062  -14.3732   -3.5506 H         1 <0>         0.0896
     42 H18         1.7527  -13.2693   -2.1999 H         1 <0>         0.0777
     43 H19         2.4643  -11.7123   -6.1254 H         1 <0>         0.0691
     44 H20         2.5202  -13.4674   -5.8344 H         1 <0>         0.0872
     45 H21         0.9593  -12.6121   -5.8193 H         1 <0>         0.0870
@<TRIPOS>BOND
     1    1    2 1
     2    1   25 1
     3    1   26 1
     4    1   27 1
     5    2    3 1
     6    2   28 1
     7    2   29 1
     8    3    4 am
     9    3   30 1
    10    4    5 2
    11    4    6 1
    12    6    7 1
    13    6    8 1
    14    6   31 1
    15    7   32 1
    16    7   33 1
    17    7   34 1
    18    8    9 am
    19    8   35 1
    20    9   10 2
    21    9   11 1
    22   11   12 2
    23   11   13 am
    24   13   14 1
    25   13   36 1
    26   14   19 ar
    27   14   15 ar
    28   15   16 ar
    29   15   37 1
    30   16   17 ar
    31   16   38 1
    32   17   22 1
    33   17   18 ar
    34   18   19 ar
    35   18   20 1
    36   19   39 1
    37   20   21 1
    38   21   22 1
    39   21   23 1
    40   21   24 1
    41   23   40 1
    42   23   41 1
    43   23   42 1
    44   24   43 1
    45   24   44 1
    46   24   45 1
@<TRIPOS>MOLECULE
ZINC64900379
   43    45     0     0     0
SMALL
USER_CHARGES

@<TRIPOS>ATOM
      1 C1         -0.0167    1.3782    0.0096 C.ar      1 <0>        -0.0649
      2 C2          1.1703    2.0860    0.0021 C.ar      1 <0>        -0.1590
      3 C3          2.3786    1.4101   -0.0131 C.ar      1 <0>         0.1094
      4 C4          2.3962    0.0256   -0.0207 C.ar      1 <0>        -0.1572
      5 C5          1.2079   -0.6800   -0.0132 C.ar      1 <0>        -0.0651
      6 C6          0.0021   -0.0041    0.0020 C.ar      1 <0>        -0.1290
      7 C7         -1.2930   -0.7747    0.0103 C.3       1 <0>         0.1736
      8 N1         -1.7258   -1.0170   -1.3682 N.am      1 <0>        -0.4474
      9 C8         -1.3304   -2.1353   -2.0075 C.2       1 <0>         0.4989
     10 O1         -0.6144   -2.9365   -1.4456 O.2       1 <0>        -0.5018
     11 C9         -1.7818   -2.3869   -3.4238 C.3       1 <0>        -0.1432
     12 C10        -3.1872   -1.8126   -3.6139 C.3       1 <0>        -0.1053
     13 C11        -3.2410   -0.4146   -3.0580 C.2       1 <0>         0.0884
     14 N2         -2.5517   -0.0889   -2.0106 N.2       1 <0>        -0.2051
     15 C12        -4.0894    0.5906   -3.7083 C.2       1 <0>         0.5833
     16 O2         -4.7432    0.2918   -4.6898 O.2       1 <0>        -0.5062
     17 N3         -4.1444    1.8450   -3.2183 N.am      1 <0>        -0.5102
     18 N4         -4.9544    2.8047   -3.8392 N.am      1 <0>        -0.5278
     19 C13        -5.0094    4.0590   -3.3492 C.2       1 <0>         0.7194
     20 O3         -5.7124    4.8919   -3.8880 O.2       1 <0>        -0.5598
     21 N5         -4.2851    4.3901   -2.2618 N.am      1 <0>        -0.7140
     22 C14        -4.3449    5.7535   -1.7292 C.3       1 <0>         0.0940
     23 C15        -3.0257    6.4085   -1.3149 C.3       1 <0>        -0.1921
     24 C16        -4.0196    5.9477   -0.2468 C.3       1 <0>        -0.1872
     25 F1          3.5396    2.1009   -0.0209 F         1 <0>        -0.1369
     26 H1         -0.9592    1.9052    0.0260 H         1 <0>         0.1341
     27 H2          1.1554    3.1659    0.0077 H         1 <0>         0.1378
     28 H3          3.3381   -0.5027   -0.0329 H         1 <0>         0.1379
     29 H4          1.2213   -1.7599   -0.0195 H         1 <0>         0.1390
     30 H5         -1.1453   -1.7280    0.5176 H         1 <0>         0.1098
     31 H6         -2.0553   -0.1984    0.5345 H         1 <0>         0.1029
     32 H7         -1.0938   -1.9027   -4.1167 H         1 <0>         0.1110
     33 H8         -1.7979   -3.4598   -3.6156 H         1 <0>         0.1247
     34 H9         -3.4295   -1.7902   -4.6764 H         1 <0>         0.1200
     35 H10        -3.9093   -2.4393   -3.0905 H         1 <0>         0.1072
     36 H11        -3.6231    2.0832   -2.4357 H         1 <0>         0.4277
     37 H12        -5.4757    2.5664   -4.6218 H         1 <0>         0.4473
     38 H13        -3.7243    3.7256   -1.8319 H         1 <0>         0.3929
     39 H14        -5.1109    6.3952   -2.1647 H         1 <0>         0.1437
     40 H15        -2.1134    5.8251   -1.4386 H         1 <0>         0.0976
     41 H16        -2.9236    7.4814   -1.4779 H         1 <0>         0.1060
     42 H17        -4.5713    6.7175    0.2928 H         1 <0>         0.1075
     43 H18        -3.7612    5.0611    0.3321 H         1 <0>         0.0980
@<TRIPOS>BOND
     1    1    6 ar
     2    1    2 ar
     3    1   26 1
     4    2    3 ar
     5    2   27 1
     6    3    4 ar
     7    3   25 1
     8    4    5 ar
     9    4   28 1
    10    5    6 ar
    11    5   29 1
    12    6    7 1
    13    7    8 1
    14    7   30 1
    15    7   31 1
    16    8   14 1
    17    8    9 am
    18    9   10 2
    19    9   11 1
    20   11   12 1
    21   11   32 1
    22   11   33 1
    23   12   13 1
    24   12   34 1
    25   12   35 1
    26   13   14 2
    27   13   15 1
    28   15   16 2
    29   15   17 am
    30   17   18 1
    31   17   36 1
    32   18   19 am
    33   18   37 1
    34   19   20 2
    35   19   21 am
    36   21   22 1
    37   21   38 1
    38   22   24 1
    39   22   23 1
    40   22   39 1
    41   23   24 1
    42   23   40 1
    43   23   41 1
    44   24   42 1
    45   24   43 1
@<TRIPOS>MOLECULE
ZINC66567145
   56    57     0     0     0
SMALL
USER_CHARGES

@<TRIPOS>ATOM
      1 C1         -0.0187    1.5258    0.0104 C.3       1 <0>        -0.1492
      2 C2          0.0021   -0.0041    0.0020 C.3       1 <0>        -0.0921
      3 H1          0.5123   -0.3556   -0.8948 H         1 <0>         0.0663
      4 C3         -1.4333   -0.5336    0.0129 C.3       1 <0>        -0.1162
      5 C4         -1.4126   -2.0635    0.0045 C.3       1 <0>        -0.1180
      6 C5         -0.6726   -2.5703    1.2440 C.3       1 <0>        -0.1304
      7 C6          0.7628   -2.0407    1.2331 C.3       1 <0>         0.1480
      8 H2          1.2900   -2.4018    2.1162 H         1 <0>         0.0882
      9 C7          0.7421   -0.5109    1.2415 C.3       1 <0>        -0.1231
     10 N1          1.4485   -2.5132    0.0278 N.am      1 <0>        -0.7262
     11 C8          2.0336   -3.7273    0.0175 C.2       1 <0>         0.5152
     12 O1          1.9924   -4.4287    1.0060 O.2       1 <0>        -0.5210
     13 C9          2.7390   -4.2133   -1.2224 C.3       1 <0>         0.0350
     14 N2          3.2881   -5.5540   -0.9796 N.3       1 <0>        -0.5229
     15 C10         2.2126   -6.5364   -0.7853 C.3       1 <0>         0.0540
     16 C11         2.8244   -7.9004   -0.4573 C.3       1 <0>         0.0619
     17 N3          3.7167   -8.3100   -1.5507 N.3       1 <0>        -0.5258
     18 C12         4.7922   -7.3276   -1.7450 C.3       1 <0>         0.0523
     19 C13         4.1804   -5.9636   -2.0731 C.3       1 <0>         0.0603
     20 C14         4.2658   -9.6507   -1.3080 C.3       1 <0>         0.0397
     21 C15         4.9712  -10.1367   -2.5478 C.2       1 <0>         0.5152
     22 O2          5.0124   -9.4355   -3.5360 O.2       1 <0>        -0.4460
     23 N4          5.5563  -11.3508   -2.5582 N.am      1 <0>        -0.6937
     24 C16         6.1871  -11.7854   -3.6670 C.2       1 <0>         0.6913
     25 O3          6.2284  -11.0825   -4.6577 O.2       1 <0>        -0.5284
     26 N5          6.7722  -12.9995   -3.6773 N.am      1 <0>        -0.7428
     27 C17         7.4579  -13.4720   -4.8827 C.3       1 <0>         0.1023
     28 H3          1.0039    1.9031    0.0027 H         1 <0>         0.0553
     29 H4         -0.5459    1.8868   -0.8726 H         1 <0>         0.0558
     30 H5         -0.5289    1.8773    0.9072 H         1 <0>         0.0561
     31 H6         -1.9435   -0.1821    0.9097 H         1 <0>         0.0641
     32 H7         -1.9605   -0.1726   -0.8702 H         1 <0>         0.0625
     33 H8         -2.4352   -2.4408    0.0122 H         1 <0>         0.0620
     34 H9         -0.9024   -2.4150   -0.8923 H         1 <0>         0.0600
     35 H10        -1.1828   -2.2188    2.1408 H         1 <0>         0.0713
     36 H11        -0.6578   -3.6602    1.2380 H         1 <0>         0.0668
     37 H12         1.7647   -0.1336    1.2338 H         1 <0>         0.0695
     38 H13         0.2319   -0.1594    2.1383 H         1 <0>         0.0792
     39 H14         1.4815   -1.9522   -0.7628 H         1 <0>         0.3979
     40 H15         2.0312   -4.2550   -2.0503 H         1 <0>         0.0646
     41 H16         3.5494   -3.5283   -1.4714 H         1 <0>         0.1041
     42 H17         1.5729   -6.2173    0.0375 H         1 <0>         0.0999
     43 H18         1.6210   -6.6131   -1.6976 H         1 <0>         0.0388
     44 H19         3.3936   -7.8302    0.4697 H         1 <0>         0.0488
     45 H20         2.0294   -8.6371   -0.3413 H         1 <0>         0.0819
     46 H21         5.3838   -7.2509   -0.8327 H         1 <0>         0.0418
     47 H22         5.4319   -7.6466   -2.5679 H         1 <0>         0.0973
     48 H23         3.6112   -6.0338   -3.0000 H         1 <0>         0.0477
     49 H24         4.9754   -5.2269   -2.1891 H         1 <0>         0.0817
     50 H25         4.9736   -9.6090   -0.4801 H         1 <0>         0.0728
     51 H26         3.4553  -10.3357   -1.0589 H         1 <0>         0.1121
     52 H27         5.5233  -11.9118   -1.7675 H         1 <0>         0.4092
     53 H28         6.7392  -13.5605   -2.8867 H         1 <0>         0.4002
     54 H29         7.8653  -14.4668   -4.7025 H         1 <0>         0.0807
     55 H30         6.7501  -13.5137   -5.7106 H         1 <0>         0.0622
     56 H31         8.2684  -12.7870   -5.1317 H         1 <0>         0.0621
@<TRIPOS>BOND
     1    1    2 1
     2    1   28 1
     3    1   29 1
     4    1   30 1
     5    2    3 1
     6    2    9 1
     7    2    4 1
     8    4    5 1
     9    4   31 1
    10    4   32 1
    11    5    6 1
    12    5   33 1
    13    5   34 1
    14    6    7 1
    15    6   35 1
    16    6   36 1
    17    7    8 1
    18    7    9 1
    19    7   10 1
    20    9   37 1
    21    9   38 1
    22   10   11 am
    23   10   39 1
    24   11   12 2
    25   11   13 1
    26   13   14 1
    27   13   40 1
    28   13   41 1
    29   14   19 1
    30   14   15 1
    31   15   16 1
    32   15   42 1
    33   15   43 1
    34   16   17 1
    35   16   44 1
    36   16   45 1
    37   17   18 1
    38   17   20 1
    39   18   19 1
    40   18   46 1
    41   18   47 1
    42   19   48 1
    43   19   49 1
    44   20   21 1
    45   20   50 1
    46   20   51 1
    47   21   22 2
    48   21   23 am
    49   23   24 am
    50   23   52 1
    51   24   25 2
    52   24   26 am
    53   26   27 1
    54   26   53 1
    55   27   54 1
    56   27   55 1
    57   27   56 1
@<TRIPOS>MOLECULE
ZINC10063017
   49    52     0     0     0
SMALL
USER_CHARGES
3-allyl-N-[(4-chlorophenyl)methyl]-9-oxo-8-phenyl-3,7,8-triazabicyclo[4.3.0]nona-1,4,6-triene-5-carboxamide
@<TRIPOS>ATOM
      1 C1          4.1189   -2.4610   -1.8742 C.2       1 <0>        -0.1465
      2 C2          2.9626   -2.9206   -1.4644 C.2       1 <0>        -0.2002
      3 C3          2.5281   -2.7033   -0.0379 C.3       1 <0>         0.1151
      4 N1          1.2189   -2.0460   -0.0209 N.pl3     1 <0>        -0.4682
      5 C4          0.1169   -2.8196   -0.0141 C.2       1 <0>         0.2478
      6 C5         -1.1338   -2.2580    0.0008 C.2       1 <0>        -0.3068
      7 C6         -2.5076   -2.7513    0.0113 C.2       1 <0>         0.5476
      8 O1         -2.8681   -3.9172    0.0085 O.2       1 <0>        -0.5125
      9 N2         -3.2996   -1.6569    0.0247 N.am      1 <0>        -0.4024
     10 N3         -2.5230   -0.4951    0.0235 N.2       1 <0>        -0.2330
     11 C7         -1.2524   -0.7817    0.0098 C.2       1 <0>         0.1709
     12 C8          0.0021   -0.0041    0.0020 C.2       1 <0>        -0.1430
     13 C9          1.1806   -0.6910   -0.0186 C.2       1 <0>         0.1569
     14 C10        -0.0179    1.4672    0.0101 C.2       1 <0>         0.5700
     15 O2         -1.0795    2.0610    0.0184 O.2       1 <0>        -0.5009
     16 N4          1.1400    2.1569    0.0028 N.am      1 <0>        -0.7291
     17 C11         1.1202    3.6217    0.0108 C.3       1 <0>         0.1632
     18 C12         2.5340    4.1433    0.0001 C.ar      1 <0>        -0.1080
     19 C13         3.1916    4.3814    1.1925 C.ar      1 <0>        -0.0868
     20 C14         4.4903    4.8545    1.1833 C.ar      1 <0>        -0.1121
     21 C15         5.1281    5.1004   -0.0195 C.ar      1 <0>        -0.0267
     22 C16         4.4674    4.8673   -1.2125 C.ar      1 <0>        -0.1120
     23 C17         3.1707    4.3889   -1.2021 C.ar      1 <0>        -0.0867
     24 Cl1         6.7569    5.7008   -0.0318 Cl        1 <0>        -0.0644
     25 C18        -4.6988   -1.6830    0.0386 C.ar      1 <0>         0.1700
     26 C19        -5.3834   -2.6735   -0.6540 C.ar      1 <0>        -0.1230
     27 C20        -6.7640   -2.6991   -0.6343 C.ar      1 <0>        -0.1007
     28 C21        -7.4652   -1.7337    0.0649 C.ar      1 <0>        -0.1286
     29 C22        -6.7867   -0.7434    0.7516 C.ar      1 <0>        -0.1033
     30 C23        -5.4061   -0.7151    0.7403 C.ar      1 <0>        -0.1167
     31 H1          4.4303   -2.6168   -2.8965 H         1 <0>         0.1099
     32 H2          4.7607   -1.9263   -1.1897 H         1 <0>         0.1045
     33 H3          2.3208   -3.4553   -2.1489 H         1 <0>         0.1212
     34 H4          3.2573   -2.0738    0.4721 H         1 <0>         0.1085
     35 H5          2.4587   -3.6645    0.4713 H         1 <0>         0.1142
     36 H6          0.2193   -3.8947   -0.0208 H         1 <0>         0.1823
     37 H7          2.1092   -0.1397   -0.0291 H         1 <0>         0.1742
     38 H8          1.9865    1.6834   -0.0079 H         1 <0>         0.3954
     39 H9          0.5930    3.9828   -0.8722 H         1 <0>         0.0833
     40 H10         0.6100    3.9732    0.9076 H         1 <0>         0.0833
     41 H11         2.6921    4.1935    2.1315 H         1 <0>         0.1359
     42 H12         5.0055    5.0362    2.1149 H         1 <0>         0.1367
     43 H13         4.9649    5.0588   -2.1518 H         1 <0>         0.1367
     44 H14         2.6550    4.2066   -2.1333 H         1 <0>         0.1357
     45 H15        -4.8365   -3.4249   -1.2042 H         1 <0>         0.1309
     46 H16        -7.2969   -3.4716   -1.1690 H         1 <0>         0.1296
     47 H17        -8.5449   -1.7534    0.0750 H         1 <0>         0.1264
     48 H18        -7.3372    0.0088    1.2970 H         1 <0>         0.1294
     49 H19        -4.8768    0.0585    1.2767 H         1 <0>         0.1318
@<TRIPOS>BOND
     1    1    2 2
     2    1   31 1
     3    1   32 1
     4    2    3 1
     5    2   33 1
     6    3    4 1
     7    3   34 1
     8    3   35 1
     9    4   13 1
    10    4    5 1
    11    5    6 2
    12    5   36 1
    13    6   11 1
    14    6    7 1
    15    7    8 2
    16    7    9 am
    17    9   10 1
    18    9   25 1
    19   10   11 2
    20   11   12 1
    21   12   13 2
    22   12   14 1
    23   13   37 1
    24   14   15 2
    25   14   16 am
    26   16   17 1
    27   16   38 1
    28   17   18 1
    29   17   39 1
    30   17   40 1
    31   18   23 ar
    32   18   19 ar
    33   19   20 ar
    34   19   41 1
    35   20   21 ar
    36   20   42 1
    37   21   22 ar
    38   21   24 1
    39   22   23 ar
    40   22   43 1
    41   23   44 1
    42   25   30 ar
    43   25   26 ar
    44   26   27 ar
    45   26   45 1
    46   27   28 ar
    47   27   46 1
    48   28   29 ar
    49   28   47 1
    50   29   30 ar
    51   29   48 1
    52   30   49 1
@<TRIPOS>MOLECULE
ZINC15006210
   57    61     0     0     0
SMALL
USER_CHARGES
2-[(4R)-2-oxo-4-phenyl-pyrrolidin-1-yl]-N-[[(2R)-5-(3-pyridyl)-2,3-dihydrobenzofuran-2-yl]methyl]acetamide
@<TRIPOS>ATOM
      1 C1         -4.1289    0.1138   11.1724 C.ar      1 <0>        -0.1190
      2 C2         -5.0025    0.6960   10.2730 C.ar      1 <0>        -0.1168
      3 C3         -4.5211    1.2488    9.1011 C.ar      1 <0>        -0.1094
      4 C4         -3.1663    1.2192    8.8282 C.ar      1 <0>        -0.0773
      5 C5         -2.2934    0.6319    9.7250 C.ar      1 <0>        -0.1153
      6 C6         -2.7741    0.0837   10.8994 C.ar      1 <0>        -0.1164
      7 C7         -2.6416    1.8215    7.5504 C.3       1 <0>        -0.0571
      8 H1         -3.4444    2.2961    6.9862 H         1 <0>         0.1028
      9 C8         -1.5004    2.8242    7.8390 C.3       1 <0>        -0.1457
     10 C9         -0.5262    2.6178    6.7000 C.2       1 <0>         0.5255
     11 O1          0.3617    3.3865    6.3975 O.2       1 <0>        -0.5249
     12 N1         -0.7899    1.4599    6.0704 N.am      1 <0>        -0.6057
     13 C10        -1.9179    0.7584    6.6945 C.3       1 <0>         0.1144
     14 C11        -0.0431    0.9593    4.9136 C.3       1 <0>         0.1083
     15 C12        -0.6866    1.4591    3.6458 C.2       1 <0>         0.4962
     16 O2         -1.6719    2.1640    3.7029 O.2       1 <0>        -0.5257
     17 N2         -0.1671    1.1227    2.4486 N.am      1 <0>        -0.7277
     18 C13        -0.7926    1.6086    1.2161 C.3       1 <0>         0.1264
     19 C14        -0.0127    1.0858    0.0080 C.3       1 <0>         0.0691
     20 H2          0.0021   -0.0041    0.0020 H         1 <0>         0.0978
     21 C15        -0.6068    1.6331   -1.3113 C.3       1 <0>        -0.1017
     22 C16         0.6374    1.8382   -2.1540 C.ar      1 <0>        -0.1686
     23 C17         0.8144    2.0285   -3.5044 C.ar      1 <0>        -0.0560
     24 C18         2.1008    2.1737   -4.0228 C.ar      1 <0>        -0.0716
     25 C19         3.1972    2.1238   -3.1634 C.ar      1 <0>        -0.0713
     26 C20         3.0108    1.9368   -1.8122 C.ar      1 <0>        -0.1313
     27 C21         1.7258    1.7956   -1.2902 C.ar      1 <0>         0.1125
     28 O3          1.3246    1.6133   -0.0019 O.3       1 <0>        -0.2959
     29 C22         2.3010    2.3801   -5.4783 C.ar      1 <0>        -0.0880
     30 C23         3.5873    2.5321   -6.0038 C.ar      1 <0>        -0.0715
     31 C24         3.7211    2.7176   -7.3689 C.ar      1 <0>        -0.1657
     32 C25         2.5876    2.7566   -8.1606 C.ar      1 <0>         0.0954
     33 N3          1.3861    2.6151   -7.6353 N.ar      1 <0>        -0.4799
     34 C26         1.2097    2.4314   -6.3427 C.ar      1 <0>         0.1051
     35 H3         -4.5049   -0.3178   12.0882 H         1 <0>         0.1225
     36 H4         -6.0610    0.7192   10.4862 H         1 <0>         0.1237
     37 H5         -5.2036    1.7037    8.3984 H         1 <0>         0.1242
     38 H6         -1.2354    0.6049    9.5098 H         1 <0>         0.1220
     39 H7         -2.0917   -0.3714   11.6019 H         1 <0>         0.1233
     40 H8         -1.8809    3.8456    7.8388 H         1 <0>         0.1074
     41 H9         -1.0239    2.5957    8.7923 H         1 <0>         0.1091
     42 H10        -2.5896    0.3689    5.9295 H         1 <0>         0.0824
     43 H11        -1.5550   -0.0528    7.3256 H         1 <0>         0.0786
     44 H12        -0.0512   -0.1306    4.9199 H         1 <0>         0.1125
     45 H13         0.9858    1.3154    4.9636 H         1 <0>         0.1157
     46 H14         0.6210    0.5590    2.4029 H         1 <0>         0.4059
     47 H15        -0.7845    2.6985    1.2098 H         1 <0>         0.0805
     48 H16        -1.8215    1.2525    1.1661 H         1 <0>         0.0921
     49 H17        -1.2727    0.9028   -1.7712 H         1 <0>         0.0996
     50 H18        -1.1237    2.5779   -1.1434 H         1 <0>         0.0985
     51 H19        -0.0413    2.0651   -4.1623 H         1 <0>         0.1310
     52 H20         4.1963    2.2324   -3.5589 H         1 <0>         0.1355
     53 H21         3.8652    1.8989   -1.1527 H         1 <0>         0.1336
     54 H22         4.4550    2.5020   -5.3614 H         1 <0>         0.1374
     55 H23         4.6996    2.8347   -7.8105 H         1 <0>         0.1389
     56 H24         2.6879    2.9057   -9.2255 H         1 <0>         0.1579
     57 H25         0.2100    2.3192   -5.9497 H         1 <0>         0.1565
@<TRIPOS>BOND
     1    1    6 ar
     2    1    2 ar
     3    1   35 1
     4    2    3 ar
     5    2   36 1
     6    3    4 ar
     7    3   37 1
     8    4    5 ar
     9    4    7 1
    10    5    6 ar
    11    5   38 1
    12    6   39 1
    13    7    8 1
    14    7   13 1
    15    7    9 1
    16    9   10 1
    17    9   40 1
    18    9   41 1
    19   10   11 2
    20   10   12 am
    21   12   13 1
    22   12   14 1
    23   13   42 1
    24   13   43 1
    25   14   15 1
    26   14   44 1
    27   14   45 1
    28   15   16 2
    29   15   17 am
    30   17   18 1
    31   17   46 1
    32   18   19 1
    33   18   47 1
    34   18   48 1
    35   19   20 1
    36   19   28 1
    37   19   21 1
    38   21   22 1
    39   21   49 1
    40   21   50 1
    41   22   27 ar
    42   22   23 ar
    43   23   24 ar
    44   23   51 1
    45   24   25 ar
    46   24   29 1
    47   25   26 ar
    48   25   52 1
    49   26   27 ar
    50   26   53 1
    51   27   28 1
    52   29   34 ar
    53   29   30 ar
    54   30   31 ar
    55   30   54 1
    56   31   32 ar
    57   31   55 1
    58   32   33 ar
    59   32   56 1
    60   33   34 ar
    61   34   57 1
@<TRIPOS>MOLECULE
ZINC21865603
   54    57     0     0     0
SMALL
USER_CHARGES
(3S)-N-[(4-chlorophenyl)methyl]-6-(2-furyl)-3-methyl-1-oxo-2-propyl-4H-pyrrolo[1,5-d]pyrazine-3-carboxamide
@<TRIPOS>ATOM
      1 C1         -1.7563   -0.2964    4.5940 C.3       1 <0>        -0.1504
      2 C2         -1.5182    0.1855    3.1615 C.3       1 <0>        -0.1399
      3 C3         -2.4854   -0.5290    2.2156 C.3       1 <0>         0.1008
      4 N1         -2.2574   -0.0676    0.8440 N.am      1 <0>        -0.6106
      5 C4         -2.9486    1.0024    0.3914 C.2       1 <0>         0.5882
      6 O1         -3.5956    1.7124    1.1393 O.2       1 <0>        -0.4974
      7 C5         -2.8771    1.2615   -1.0502 C.2       1 <0>        -0.0753
      8 C6         -3.2929    2.3367   -1.7858 C.2       1 <0>        -0.0783
      9 C7         -2.9640    2.0810   -3.1179 C.2       1 <0>        -0.1771
     10 C8         -2.3490    0.8395   -3.1714 C.2       1 <0>         0.1434
     11 N2         -2.3029    0.3351   -1.9138 N.pl3     1 <0>        -0.4262
     12 C9         -1.7761   -0.9442   -1.4298 C.3       1 <0>         0.1013
     13 C10        -1.2926   -0.7753    0.0102 C.3       1 <0>         0.1519
     14 C11        -1.0395   -2.1588    0.6124 C.3       1 <0>        -0.1497
     15 C12         0.0021   -0.0041    0.0020 C.2       1 <0>         0.5082
     16 O2          1.0605   -0.5961   -0.0113 O.2       1 <0>        -0.5279
     17 N3         -0.0162    1.3436    0.0094 N.am      1 <0>        -0.7240
     18 C13         1.2424    2.0932    0.0014 C.3       1 <0>         0.1619
     19 C14         0.9470    3.5710    0.0122 C.ar      1 <0>        -0.1079
     20 C15         0.8057    4.2560   -1.1802 C.ar      1 <0>        -0.0831
     21 C16         0.5292    5.6102   -1.1709 C.ar      1 <0>        -0.1095
     22 C17         0.4049    6.2823    0.0319 C.ar      1 <0>        -0.0244
     23 C18         0.5520    5.5973    1.2249 C.ar      1 <0>        -0.1105
     24 C19         0.8230    4.2420    1.2144 C.ar      1 <0>        -0.0856
     25 Cl1         0.0652    7.9847    0.0443 Cl        1 <0>        -0.0644
     26 C20        -1.8359    0.1836   -4.3821 C.2       1 <0>         0.0285
     27 C21        -1.7997    0.7261   -5.6330 C.2       1 <0>        -0.1626
     28 C22        -1.2303   -0.2438   -6.4784 C.2       1 <0>        -0.2089
     29 C23        -0.9573   -1.3228   -5.7163 C.2       1 <0>        -0.0256
     30 O3         -1.3240   -1.0615   -4.4516 O.3       1 <0>        -0.1783
     31 H1         -1.0609    0.2174    5.2740 H         1 <0>         0.0593
     32 H2         -1.5876   -1.3820    4.6484 H         1 <0>         0.0563
     33 H3         -2.7917   -0.0710    4.8894 H         1 <0>         0.0592
     34 H4         -1.6869    1.2711    3.1071 H         1 <0>         0.0701
     35 H5         -0.4828   -0.0399    2.8661 H         1 <0>         0.0608
     36 H6         -2.3167   -1.6146    2.2701 H         1 <0>         0.0925
     37 H7         -3.5208   -0.3036    2.5109 H         1 <0>         0.0912
     38 H8         -3.7844    3.2203   -1.4063 H         1 <0>         0.1590
     39 H9         -3.1544    2.7336   -3.9570 H         1 <0>         0.1561
     40 H10        -2.5699   -1.7049   -1.4661 H         1 <0>         0.1096
     41 H11        -0.9366   -1.2596   -2.0668 H         1 <0>         0.1200
     42 H12        -0.3124   -2.7018   -0.0093 H         1 <0>         0.0931
     43 H13        -1.9840   -2.7215    0.6481 H         1 <0>         0.0817
     44 H14        -0.6401   -2.0477    1.6313 H         1 <0>         0.0851
     45 H15        -0.9761    1.8806    0.0214 H         1 <0>         0.4203
     46 H16         1.8313    1.8305    0.8926 H         1 <0>         0.0801
     47 H17         1.8142    1.8402   -0.9036 H         1 <0>         0.0792
     48 H18         0.9071    3.7321   -2.1191 H         1 <0>         0.1326
     49 H19         0.4144    6.1444   -2.1025 H         1 <0>         0.1371
     50 H20         0.4555    6.1216    2.1642 H         1 <0>         0.1366
     51 H21         0.9375    3.7071    2.1456 H         1 <0>         0.1324
     52 H22        -2.1401    1.7104   -5.9188 H         1 <0>         0.1569
     53 H23        -1.0500   -0.1447   -7.5386 H         1 <0>         0.1559
     54 H24        -0.5168   -2.2448   -6.0659 H         1 <0>         0.2085
@<TRIPOS>BOND
     1    1    2 1
     2    1   31 1
     3    1   32 1
     4    1   33 1
     5    2    3 1
     6    2   34 1
     7    2   35 1
     8    3    4 1
     9    3   36 1
    10    3   37 1
    11    4   13 1
    12    4    5 am
    13    5    6 2
    14    5    7 1
    15    7   11 1
    16    7    8 2
    17    8    9 1
    18    8   38 1
    19    9   10 2
    20    9   39 1
    21   10   11 1
    22   10   26 1
    23   11   12 1
    24   12   13 1
    25   12   40 1
    26   12   41 1
    27   13   14 1
    28   13   15 1
    29   14   42 1
    30   14   43 1
    31   14   44 1
    32   15   16 2
    33   15   17 am
    34   17   18 1
    35   17   45 1
    36   18   19 1
    37   18   46 1
    38   18   47 1
    39   19   24 ar
    40   19   20 ar
    41   20   21 ar
    42   20   48 1
    43   21   22 ar
    44   21   49 1
    45   22   23 ar
    46   22   25 1
    47   23   24 ar
    48   23   50 1
    49   24   51 1
    50   26   30 1
    51   26   27 2
    52   27   28 1
    53   27   52 1
    54   28   29 2
    55   28   53 1
    56   29   30 1
    57   29   54 1
@<TRIPOS>MOLECULE
ZINC44839970
   50    52     0     0     0
SMALL
USER_CHARGES

@<TRIPOS>ATOM
      1 C1         -0.0597    1.5428    0.0221 C.3       1 <0>        -0.1500
      2 C2         -0.0319    0.0131    0.0080 C.3       1 <0>        -0.1415
      3 C3          0.7173   -0.4948    1.2415 C.3       1 <0>         0.1359
      4 H1          1.7084   -0.0424    1.2765 H         1 <0>         0.1148
      5 C4          0.8538   -2.0167    1.1646 C.3       1 <0>        -0.1700
      6 N1         -0.0281   -0.1318    2.4494 N.am      1 <0>        -0.5475
      7 C5         -1.2866   -0.5935    2.6150 C.2       1 <0>         0.5670
      8 O1         -1.8056   -1.3042    1.7759 O.2       1 <0>        -0.4837
      9 C6         -2.0143   -0.2139    3.8392 C.ar      1 <0>        -0.1935
     10 C7         -3.3145   -0.6496    4.0834 C.ar      1 <0>        -0.0116
     11 C8         -3.9522   -0.2668    5.2447 C.ar      1 <0>        -0.1539
     12 C9         -3.3074    0.5460    6.1646 C.ar      1 <0>        -0.0426
     13 C10        -2.0187    0.9846    5.9344 C.ar      1 <0>        -0.1693
     14 C11        -1.3613    0.6097    4.7726 C.ar      1 <0>         0.2050
     15 N2         -0.0662    1.0279    4.5030 N.am      1 <0>        -0.5258
     16 C12         0.5548    0.6487    3.3728 C.2       1 <0>         0.7112
     17 O2          1.6913    1.0331    3.1763 O.2       1 <0>        -0.5364
     18 C13         0.6330    1.8870    5.4617 C.3       1 <0>         0.0963
     19 C14         1.3818    1.0309    6.4504 C.2       1 <0>         0.5039
     20 O3          1.3359   -0.1780    6.3628 O.2       1 <0>        -0.4906
     21 N3          2.1025    1.6085    7.4319 N.am      1 <0>        -0.6719
     22 C15         2.7027    0.8171    8.4176 C.ar      1 <0>         0.2022
     23 C16         2.1817   -0.4349    8.7175 C.ar      1 <0>        -0.1341
     24 C17         2.7763   -1.2135    9.6908 C.ar      1 <0>        -0.0631
     25 C18         3.8891   -0.7474   10.3670 C.ar      1 <0>        -0.1371
     26 C19         4.4099    0.4987   10.0711 C.ar      1 <0>        -0.0503
     27 C20         3.8237    1.2796    9.0939 C.ar      1 <0>        -0.2187
     28 C21         4.3963    2.6346    8.7669 C.3       1 <0>         0.5085
     29 F1          5.5138    2.8756    9.5733 F         1 <0>        -0.1707
     30 F2          4.7766    2.6678    7.4210 F         1 <0>        -0.1730
     31 F3          3.4301    3.6185    9.0029 F         1 <0>        -0.1793
     32 H2          0.9611    1.9248    0.0100 H         1 <0>         0.0580
     33 H3         -0.5934    1.9046   -0.8567 H         1 <0>         0.0601
     34 H4         -0.5665    1.8887    0.9230 H         1 <0>         0.0432
     35 H5         -1.0527   -0.3689    0.0201 H         1 <0>         0.0866
     36 H6          0.4749   -0.3328   -0.8929 H         1 <0>         0.0841
     37 H7         -0.1373   -2.4691    1.1296 H         1 <0>         0.0800
     38 H8          1.4083   -2.2868    0.2659 H         1 <0>         0.0776
     39 H9          1.3875   -2.3786    2.0434 H         1 <0>         0.0581
     40 H10        -3.8196   -1.2821    3.3685 H         1 <0>         0.1465
     41 H11        -4.9604   -0.6019    5.4388 H         1 <0>         0.1388
     42 H12        -3.8183    0.8392    7.0698 H         1 <0>         0.1388
     43 H13        -1.5245    1.6177    6.6564 H         1 <0>         0.1344
     44 H14         1.3365    2.5276    4.9298 H         1 <0>         0.1398
     45 H15        -0.0917    2.5049    5.9919 H         1 <0>         0.1338
     46 H16         2.2052    2.5727    7.4551 H         1 <0>         0.4146
     47 H17         1.3123   -0.7991    8.1904 H         1 <0>         0.1552
     48 H18         2.3716   -2.1871    9.9245 H         1 <0>         0.1378
     49 H19         4.3521   -1.3580   11.1280 H         1 <0>         0.1382
     50 H20         5.2788    0.8600   10.6011 H         1 <0>         0.1439
@<TRIPOS>BOND
     1    1    2 1
     2    1   32 1
     3    1   33 1
     4    1   34 1
     5    2    3 1
     6    2   35 1
     7    2   36 1
     8    3    4 1
     9    3    5 1
    10    3    6 1
    11    5   37 1
    12    5   38 1
    13    5   39 1
    14    6   16 am
    15    6    7 am
    16    7    8 2
    17    7    9 1
    18    9   14 ar
    19    9   10 ar
    20   10   11 ar
    21   10   40 1
    22   11   12 ar
    23   11   41 1
    24   12   13 ar
    25   12   42 1
    26   13   14 ar
    27   13   43 1
    28   14   15 1
    29   15   16 am
    30   15   18 1
    31   16   17 2
    32   18   19 1
    33   18   44 1
    34   18   45 1
    35   19   20 2
    36   19   21 am
    37   21   22 1
    38   21   46 1
    39   22   27 ar
    40   22   23 ar
    41   23   24 ar
    42   23   47 1
    43   24   25 ar
    44   24   48 1
    45   25   26 ar
    46   25   49 1
    47   26   27 ar
    48   26   50 1
    49   27   28 1
    50   28   29 1
    51   28   30 1
    52   28   31 1
@<TRIPOS>MOLECULE
ZINC60266404
   54    56     0     0     0
SMALL
USER_CHARGES

@<TRIPOS>ATOM
      1 C1         -0.2401    1.3946    0.0224 C.3       1 <0>        -0.1157
      2 C2          0.1550   -0.0591   -0.0200 C.ar      1 <0>        -0.0488
      3 C3          0.4234   -0.6667   -1.2310 C.ar      1 <0>        -0.1770
      4 C4          0.7879   -2.0058   -1.2701 C.ar      1 <0>         0.2067
      5 C5          0.8825   -2.7344   -0.0915 C.ar      1 <0>        -0.1728
      6 C6          0.6137   -2.1272    1.1190 C.ar      1 <0>        -0.1140
      7 C7          0.2547   -0.7861    1.1586 C.ar      1 <0>         0.0968
      8 N1         -0.0118   -0.1687    2.3865 N.pl3     1 <0>        -1.0502
      9 S1          0.8527   -0.5958    3.7329 S.o2      1 <0>         2.6960
     10 O1          0.4580    0.2940    4.7681 O.2       1 <0>        -0.9485
     11 O2          0.7401   -2.0069    3.8571 O.2       1 <0>        -0.9535
     12 C8          2.5476   -0.2538    3.3938 C.ar      1 <0>        -0.6752
     13 C9          3.4581   -1.2915    3.3133 C.ar      1 <0>        -0.0715
     14 C10         4.7909   -1.0244    3.0468 C.ar      1 <0>         0.0785
     15 C11         5.2105    0.2897    2.8606 C.ar      1 <0>         0.1654
     16 C12         4.2933    1.3246    2.9426 C.ar      1 <0>        -0.1993
     17 C13         2.9631    1.0505    3.2034 C.ar      1 <0>         0.0318
     18 C14         1.9656    2.1771    3.2861 C.3       1 <0>        -0.1383
     19 O3          6.5180    0.5571    2.5992 O.3       1 <0>        -0.2981
     20 C15         6.8763    1.9287    2.4195 C.3       1 <0>         0.0210
     21 O4          5.6877   -2.0437    2.9677 O.3       1 <0>        -0.3030
     22 C16         5.1860   -3.3663    3.1702 C.3       1 <0>         0.0198
     23 N2          1.0595   -2.6218   -2.4976 N.pl3     1 <0>        -0.6322
     24 C17         1.5635   -3.9958   -2.5211 C.3       1 <0>         0.1194
     25 C18         0.5183   -4.9123   -3.1670 C.3       1 <0>        -0.1039
     26 S2          0.1467   -4.2867   -4.8332 S.3       1 <0>        -0.2563
     27 C19        -0.2964   -2.5491   -4.5332 C.3       1 <0>        -0.1034
     28 C20         0.8304   -1.8861   -3.7420 C.3       1 <0>         0.1195
     29 H1          0.6539    2.0115    0.1134 H         1 <0>         0.0752
     30 H2         -0.7691    1.6543   -0.8945 H         1 <0>         0.0709
     31 H3         -0.8909    1.5693    0.8792 H         1 <0>         0.0653
     32 H4          0.3495   -0.1002   -2.1475 H         1 <0>         0.1292
     33 H5          1.1660   -3.7761   -0.1219 H         1 <0>         0.1302
     34 H6          0.6866   -2.6939    2.0354 H         1 <0>         0.1587
     35 H7         -0.7028    0.5092    2.4487 H         1 <0>         0.4235
     36 H8          3.1301   -2.3102    3.4585 H         1 <0>         0.1548
     37 H9          4.6162    2.3451    2.7985 H         1 <0>         0.1462
     38 H10         1.9634    2.5869    4.2961 H         1 <0>         0.0983
     39 H11         2.2403    2.9584    2.5775 H         1 <0>         0.0848
     40 H12         0.9716    1.8006    3.0446 H         1 <0>         0.0637
     41 H13         6.3190    2.3427    1.5791 H         1 <0>         0.0597
     42 H14         6.6382    2.4881    3.3242 H         1 <0>         0.0604
     43 H15         7.9450    2.0017    2.2179 H         1 <0>         0.1067
     44 H16         4.7460   -3.4398    4.1647 H         1 <0>         0.0588
     45 H17         4.4264   -3.5856    2.4198 H         1 <0>         0.0586
     46 H18         6.0028   -4.0825    3.0804 H         1 <0>         0.1057
     47 H19         2.4871   -4.0342   -3.0987 H         1 <0>         0.0801
     48 H20         1.7584   -4.3288   -1.5016 H         1 <0>         0.0967
     49 H21         0.9135   -5.9258   -3.2366 H         1 <0>         0.1155
     50 H22        -0.3905   -4.9120   -2.5651 H         1 <0>         0.0875
     51 H23        -0.4276   -2.0354   -5.4856 H         1 <0>         0.1153
     52 H24        -1.2214   -2.5014   -3.9587 H         1 <0>         0.0865
     53 H25         0.5522   -0.8579   -3.5103 H         1 <0>         0.0959
     54 H26         1.7420   -1.8900   -4.3396 H         1 <0>         0.0792
@<TRIPOS>BOND
     1    1    2 1
     2    1   29 1
     3    1   30 1
     4    1   31 1
     5    2    7 ar
     6    2    3 ar
     7    3    4 ar
     8    3   32 1
     9    4    5 ar
    10    4   23 1
    11    5    6 ar
    12    5   33 1
    13    6    7 ar
    14    6   34 1
    15    7    8 1
    16    8    9 1
    17    8   35 1
    18    9   10 2
    19    9   11 2
    20    9   12 1
    21   12   17 ar
    22   12   13 ar
    23   13   14 ar
    24   13   36 1
    25   14   15 ar
    26   14   21 1
    27   15   16 ar
    28   15   19 1
    29   16   17 ar
    30   16   37 1
    31   17   18 1
    32   18   38 1
    33   18   39 1
    34   18   40 1
    35   19   20 1
    36   20   41 1
    37   20   42 1
    38   20   43 1
    39   21   22 1
    40   22   44 1
    41   22   45 1
    42   22   46 1
    43   23   28 1
    44   23   24 1
    45   24   25 1
    46   24   47 1
    47   24   48 1
    48   25   26 1
    49   25   49 1
    50   25   50 1
    51   26   27 1
    52   27   28 1
    53   27   51 1
    54   27   52 1
    55   28   53 1
    56   28   54 1
@<TRIPOS>MOLECULE
ZINC09438801
   55    59     0     0     0
SMALL
USER_CHARGES
5-imino-4-[[3-(2-phenoxyethoxy)phenyl]methylene]-7-phenyl-9-thia-2,6-diazabicyclo[4.3.0]nona-1,7-dien-3-one
@<TRIPOS>ATOM
      1 C1          8.3658   -8.6736   -9.7909 C.ar      1 <0>        -0.1006
      2 C2          9.6821   -8.5300  -10.1920 C.ar      1 <0>        -0.1202
      3 C3         10.6387   -8.1083   -9.2918 C.ar      1 <0>        -0.0838
      4 C4         10.2762   -7.8267   -7.9739 C.ar      1 <0>        -0.0396
      5 C5          8.9479   -7.9796   -7.5741 C.ar      1 <0>        -0.0641
      6 C6          7.9999   -8.3961   -8.4857 C.ar      1 <0>        -0.1191
      7 C7         11.2964   -7.3741   -7.0035 C.2       1 <0>         0.1436
      8 C8         12.4608   -8.0447   -6.8662 C.2       1 <0>        -0.2118
      9 S1         13.2842   -7.1066   -5.5894 S.3       1 <0>         0.1969
     10 C9         12.0518   -5.9357   -5.3094 C.2       1 <0>         0.3782
     11 N1         12.0169   -4.9579   -4.4328 N.2       1 <0>        -0.5576
     12 C10        10.9026   -4.2122   -4.3152 C.2       1 <0>         0.5416
     13 O1         10.8809   -3.2246   -3.5989 O.2       1 <0>        -0.4403
     14 C11         9.7003   -4.6259   -5.0829 C.2       1 <0>        -0.2564
     15 C12         8.4388   -4.2969   -4.6788 C.2       1 <0>         0.0539
     16 C13         8.2288   -3.6627   -3.3721 C.ar      1 <0>        -0.0529
     17 C14         8.9733   -4.0777   -2.2604 C.ar      1 <0>        -0.0929
     18 C15         8.7722   -3.4782   -1.0357 C.ar      1 <0>        -0.0795
     19 C16         7.8369   -2.4675   -0.8994 C.ar      1 <0>        -0.1850
     20 C17         7.0930   -2.0478   -1.9947 C.ar      1 <0>         0.1243
     21 C18         7.2799   -2.6436   -3.2294 C.ar      1 <0>        -0.1157
     22 O2          6.1764   -1.0545   -1.8522 O.3       1 <0>        -0.3068
     23 C19         6.0310   -0.4880   -0.5484 C.3       1 <0>         0.0609
     24 C20         4.9620    0.6061   -0.5839 C.3       1 <0>         0.0612
     25 O3          3.6931    0.0226   -0.8862 O.3       1 <0>        -0.3083
     26 C21         2.6281    0.8639   -0.9560 C.ar      1 <0>         0.1289
     27 C22         1.3663    0.3649   -1.2453 C.ar      1 <0>        -0.1517
     28 C23         0.2854    1.2222   -1.3162 C.ar      1 <0>        -0.0800
     29 C24         0.4603    2.5765   -1.0995 C.ar      1 <0>        -0.1585
     30 C25         1.7168    3.0763   -0.8109 C.ar      1 <0>        -0.0798
     31 C26         2.8009    2.2231   -0.7385 C.ar      1 <0>        -0.2110
     32 C27         9.9485   -5.4263   -6.3164 C.2       1 <0>         0.4364
     33 N2          9.1951   -5.3559   -7.3800 N.2       1 <0>        -0.6502
     34 N3         11.0779   -6.2660   -6.2260 N.pl3     1 <0>        -0.4813
     35 H1          7.6208   -9.0041  -10.4995 H         1 <0>         0.1245
     36 H2          9.9614   -8.7482  -11.2122 H         1 <0>         0.1278
     37 H3         11.6659   -7.9966   -9.6062 H         1 <0>         0.1276
     38 H4          8.6619   -7.7680   -6.5543 H         1 <0>         0.1094
     39 H5          6.9708   -8.5106   -8.1788 H         1 <0>         0.1234
     40 H6         12.8049   -8.9226   -7.3927 H         1 <0>         0.2190
     41 H7          7.5951   -4.5033   -5.3208 H         1 <0>         0.1426
     42 H8          9.7042   -4.8662   -2.3629 H         1 <0>         0.1180
     43 H9          9.3466   -3.7987   -0.1791 H         1 <0>         0.1311
     44 H10         7.6844   -2.0029    0.0636 H         1 <0>         0.1311
     45 H11         6.6988   -2.3209   -4.0805 H         1 <0>         0.1356
     46 H12         6.9809   -0.0576   -0.2312 H         1 <0>         0.0875
     47 H13         5.7318   -1.2656    0.1544 H         1 <0>         0.0767
     48 H14         5.2170    1.3384   -1.3500 H         1 <0>         0.0761
     49 H15         4.9135    1.0983    0.3874 H         1 <0>         0.0868
     50 H16         1.2293   -0.6928   -1.4154 H         1 <0>         0.1305
     51 H17        -0.6970    0.8343   -1.5414 H         1 <0>         0.1299
     52 H18        -0.3852    3.2458   -1.1601 H         1 <0>         0.1245
     53 H19         1.8509    4.1346   -0.6423 H         1 <0>         0.1253
     54 H20         3.7822    2.6140   -0.5135 H         1 <0>         0.1269
     55 H21         8.4793   -4.7029   -7.4250 H         1 <0>         0.3670
@<TRIPOS>BOND
     1    1    6 ar
     2    1    2 ar
     3    1   35 1
     4    2    3 ar
     5    2   36 1
     6    3    4 ar
     7    3   37 1
     8    4    5 ar
     9    4    7 1
    10    5    6 ar
    11    5   38 1
    12    6   39 1
    13    7   34 1
    14    7    8 2
    15    8    9 1
    16    8   40 1
    17    9   10 1
    18   10   34 1
    19   10   11 2
    20   11   12 1
    21   12   13 2
    22   12   14 1
    23   14   15 2
    24   14   32 1
    25   15   16 1
    26   15   41 1
    27   16   21 ar
    28   16   17 ar
    29   17   18 ar
    30   17   42 1
    31   18   19 ar
    32   18   43 1
    33   19   20 ar
    34   19   44 1
    35   20   21 ar
    36   20   22 1
    37   21   45 1
    38   22   23 1
    39   23   24 1
    40   23   46 1
    41   23   47 1
    42   24   25 1
    43   24   48 1
    44   24   49 1
    45   25   26 1
    46   26   31 ar
    47   26   27 ar
    48   27   28 ar
    49   27   50 1
    50   28   29 ar
    51   28   51 1
    52   29   30 ar
    53   29   52 1
    54   30   31 ar
    55   30   53 1
    56   31   54 1
    57   32   33 2
    58   32   34 1
    59   33   55 1
@<TRIPOS>MOLECULE
ZINC16903279
   60    64     0     0     0
SMALL
USER_CHARGES
(4S)-1-(4-fluorophenyl)-4-[1-[(2S)-2-hydroxy-3-(4-methylphenoxy)propyl]benzimidazol-2-yl]pyrrolidin-2-one
@<TRIPOS>ATOM
      1 C1          7.0565    3.9908   -9.7591 C.3       1 <0>        -0.1127
      2 C2          6.6797    3.8400   -8.3078 C.ar      1 <0>        -0.1211
      3 C3          6.5151    4.9625   -7.5173 C.ar      1 <0>        -0.0798
      4 C4          6.1697    4.8270   -6.1866 C.ar      1 <0>        -0.1443
      5 C5          5.9879    3.5634   -5.6436 C.ar      1 <0>         0.1199
      6 C6          6.1592    2.4386   -6.4374 C.ar      1 <0>        -0.2059
      7 C7          6.4995    2.5796   -7.7688 C.ar      1 <0>        -0.0809
      8 O1          5.6481    3.4275   -4.3348 O.3       1 <0>        -0.3015
      9 C8          5.4774    2.0964   -3.8437 C.3       1 <0>         0.0305
     10 C9          5.0994    2.1440   -2.3619 C.3       1 <0>         0.0947
     11 H1          5.8479    2.7167   -1.8142 H         1 <0>         0.1193
     12 C10         5.0385    0.7203   -1.8050 C.3       1 <0>         0.0782
     13 N1          4.7944    0.7706   -0.3614 N.pl3     1 <0>        -0.4772
     14 C11         5.7543    0.8244    0.6294 C.ar      1 <0>         0.0523
     15 C12         7.1424    0.8480    0.6305 C.ar      1 <0>        -0.1136
     16 C13         7.8234    0.9050    1.8277 C.ar      1 <0>        -0.0953
     17 C14         7.1308    0.9389    3.0299 C.ar      1 <0>        -0.1259
     18 C15         5.7651    0.9170    3.0481 C.ar      1 <0>        -0.0605
     19 C16         5.0536    0.8589    1.8468 C.ar      1 <0>         0.0499
     20 N2          3.7306    0.8298    1.5425 N.2       1 <0>        -0.4787
     21 C17         3.5799    0.7733    0.2514 C.2       1 <0>         0.2965
     22 C18         2.2531    0.7246   -0.4616 C.3       1 <0>        -0.0170
     23 H2          2.3925    0.7284   -1.5426 H         1 <0>         0.1075
     24 C19         1.4293   -0.5051   -0.0142 C.3       1 <0>        -0.1421
     25 C20         0.0022   -0.0041    0.0174 C.2       1 <0>         0.5229
     26 O2         -0.9822   -0.7121    0.0454 O.2       1 <0>        -0.5015
     27 N3         -0.0162    1.3400    0.0094 N.am      1 <0>        -0.5565
     28 C21         1.3436    1.8916   -0.0174 C.3       1 <0>         0.1118
     29 C22        -1.1829    2.1143    0.0194 C.ar      1 <0>         0.1559
     30 C23        -2.4244    1.5021   -0.0884 C.ar      1 <0>        -0.1268
     31 C24        -3.5742    2.2672   -0.0736 C.ar      1 <0>        -0.1231
     32 C25        -3.4888    3.6448    0.0380 C.ar      1 <0>         0.0741
     33 C26        -2.2513    4.2577    0.1403 C.ar      1 <0>        -0.1240
     34 C27        -1.0994    3.4958    0.1312 C.ar      1 <0>        -0.1270
     35 F1         -4.6144    4.3919    0.0467 F         1 <0>        -0.1396
     36 O3          3.8219    2.7676   -2.2160 O.3       1 <0>        -0.5375
     37 H3          8.1423    3.9935   -9.8542 H         1 <0>         0.0695
     38 H4          6.6439    3.1589  -10.3299 H         1 <0>         0.0655
     39 H5          6.6558    4.9289  -10.1430 H         1 <0>         0.0667
     40 H6          6.6564    5.9459   -7.9406 H         1 <0>         0.1307
     41 H7          6.0409    5.7040   -5.5697 H         1 <0>         0.1318
     42 H8          6.0227    1.4537   -6.0158 H         1 <0>         0.1253
     43 H9          6.6294    1.7044   -8.3881 H         1 <0>         0.1252
     44 H10         6.4086    1.5427   -3.9635 H         1 <0>         0.0753
     45 H11         4.6852    1.6008   -4.4050 H         1 <0>         0.0703
     46 H12         5.9851    0.2147   -1.9961 H         1 <0>         0.1082
     47 H13         4.2303    0.1742   -2.2914 H         1 <0>         0.1030
     48 H14         7.6862    0.8221   -0.3022 H         1 <0>         0.1213
     49 H15         8.9032    0.9230    1.8302 H         1 <0>         0.1318
     50 H16         7.6772    0.9835    3.9604 H         1 <0>         0.1315
     51 H17         5.2362    0.9442    3.9893 H         1 <0>         0.1309
     52 H18         1.7407   -0.8325    0.9778 H         1 <0>         0.1250
     53 H19         1.5324   -1.3179   -0.7330 H         1 <0>         0.1146
     54 H20         1.4042    2.7109   -0.7338 H         1 <0>         0.0991
     55 H21         1.6305    2.2363    0.9761 H         1 <0>         0.0993
     56 H22        -2.4913    0.4280   -0.1797 H         1 <0>         0.1639
     57 H23        -4.5403    1.7911   -0.1536 H         1 <0>         0.1408
     58 H24        -2.1869    5.3322    0.2277 H         1 <0>         0.1409
     59 H25        -0.1345    3.9742    0.2107 H         1 <0>         0.1367
     60 H26         3.1061    2.3107   -2.6785 H         1 <0>         0.3715
@<TRIPOS>BOND
     1    1    2 1
     2    1   37 1
     3    1   38 1
     4    1   39 1
     5    2    7 ar
     6    2    3 ar
     7    3    4 ar
     8    3   40 1
     9    4    5 ar
    10    4   41 1
    11    5    6 ar
    12    5    8 1
    13    6    7 ar
    14    6   42 1
    15    7   43 1
    16    8    9 1
    17    9   10 1
    18    9   44 1
    19    9   45 1
    20   10   11 1
    21   10   12 1
    22   10   36 1
    23   12   13 1
    24   12   46 1
    25   12   47 1
    26   13   21 1
    27   13   14 1
    28   14   19 ar
    29   14   15 ar
    30   15   16 ar
    31   15   48 1
    32   16   17 ar
    33   16   49 1
    34   17   18 ar
    35   17   50 1
    36   18   19 ar
    37   18   51 1
    38   19   20 1
    39   20   21 2
    40   21   22 1
    41   22   23 1
    42   22   28 1
    43   22   24 1
    44   24   25 1
    45   24   52 1
    46   24   53 1
    47   25   26 2
    48   25   27 am
    49   27   28 1
    50   27   29 1
    51   28   54 1
    52   28   55 1
    53   29   34 ar
    54   29   30 ar
    55   30   31 ar
    56   30   56 1
    57   31   32 ar
    58   31   57 1
    59   32   33 ar
    60   32   35 1
    61   33   34 ar
    62   33   58 1
    63   34   59 1
    64   36   60 1
@<TRIPOS>MOLECULE
ZINC25473407
   51    53     0     0     0
SMALL
USER_CHARGES
N-[4-(benzyl-methyl-sulfamoyl)phenyl]-4-fluoro-2-methyl-benzenesulfonamide
@<TRIPOS>ATOM
      1 C1          2.0707    0.8745   -2.3635 C.3       1 <0>        -0.1691
      2 C2          2.5912    1.7812   -1.2781 C.ar      1 <0>         0.0516
      3 C3          3.8735    2.2907   -1.3594 C.ar      1 <0>        -0.1782
      4 C4          4.3533    3.1190   -0.3593 C.ar      1 <0>         0.1670
      5 C5          3.5459    3.4404    0.7189 C.ar      1 <0>        -0.1802
      6 C6          2.2625    2.9341    0.7953 C.ar      1 <0>         0.0165
      7 C7          1.7843    2.1069   -0.2041 C.ar      1 <0>        -0.6998
      8 S1          0.1478    1.4616   -0.1049 S.o2      1 <0>         2.6977
      9 O1         -0.4433    2.0299    1.0556 O.2       1 <0>        -0.9461
     10 O2          0.2525    0.0575   -0.2967 O.2       1 <0>        -0.9405
     11 N1         -0.6921    2.0552   -1.4029 N.pl3     1 <0>        -1.0743
     12 C8         -0.9072    3.4297   -1.5261 C.ar      1 <0>         0.2075
     13 C9         -1.3367    4.1681   -0.4306 C.ar      1 <0>        -0.1740
     14 C10        -1.5437    5.5279   -0.5547 C.ar      1 <0>         0.0046
     15 C11        -1.3341    6.1527   -1.7704 C.ar      1 <0>        -0.6902
     16 C12        -0.9116    5.4197   -2.8643 C.ar      1 <0>        -0.0018
     17 C13        -0.6975    4.0605   -2.7458 C.ar      1 <0>        -0.1515
     18 S2         -1.6054    7.8867   -1.9259 S.o2      1 <0>         2.6896
     19 O3         -1.4721    8.4371   -0.6226 O.2       1 <0>        -0.9481
     20 O4         -0.8148    8.3248   -3.0224 O.2       1 <0>        -0.9519
     21 N2         -3.1871    8.0970   -2.3690 N.pl3     1 <0>        -0.9946
     22 C14        -3.5519    8.1329   -3.7874 C.3       1 <0>         0.0860
     23 C15        -4.2216    8.2473   -1.3426 C.3       1 <0>         0.1618
     24 C16        -4.4721    9.7121   -1.0925 C.ar      1 <0>        -0.1183
     25 C17        -3.7478   10.3817   -0.1240 C.ar      1 <0>        -0.1010
     26 C18        -3.9739   11.7266    0.1017 C.ar      1 <0>        -0.1233
     27 C19        -4.9320   12.3993   -0.6334 C.ar      1 <0>        -0.1138
     28 C20        -5.6602   11.7284   -1.5980 C.ar      1 <0>        -0.1262
     29 C21        -5.4302   10.3848   -1.8277 C.ar      1 <0>        -0.1025
     30 F1          5.6081    3.6138   -0.4353 F         1 <0>        -0.1257
     31 H1          2.8497    0.7318   -3.1269 H         1 <0>         0.0906
     32 H2          1.1825    1.3292   -2.8265 H         1 <0>         0.0845
     33 H3          1.8000   -0.0993   -1.9293 H         1 <0>         0.1109
     34 H4          4.5024    2.0391   -2.2006 H         1 <0>         0.1478
     35 H5          3.9192    4.0862    1.4998 H         1 <0>         0.1497
     36 H6          1.6327    3.1843    1.6363 H         1 <0>         0.1559
     37 H7         -1.0806    1.3669   -2.1680 H         1 <0>         0.4601
     38 H8         -1.5048    3.6800    0.5180 H         1 <0>         0.1664
     39 H9         -1.8737    6.1032    0.2976 H         1 <0>         0.1480
     40 H10        -0.7491    5.9107   -3.8124 H         1 <0>         0.1450
     41 H11        -0.3672    3.4888   -3.6004 H         1 <0>         0.1401
     42 H12        -4.6379    8.2793   -3.8831 H         1 <0>         0.0843
     43 H13        -3.2666    7.1832   -4.2635 H         1 <0>         0.0617
     44 H14        -3.0251    8.9631   -4.2806 H         1 <0>         0.0704
     45 H15        -5.1511    7.7698   -1.6862 H         1 <0>         0.0933
     46 H16        -3.8861    7.7684   -0.4109 H         1 <0>         0.0929
     47 H17        -3.0025    9.8550    0.4534 H         1 <0>         0.1394
     48 H18        -3.4047   12.2509    0.8551 H         1 <0>         0.1237
     49 H19        -5.1113   13.4492   -0.4545 H         1 <0>         0.1217
     50 H20        -6.4087   12.2540   -2.1724 H         1 <0>         0.1221
     51 H21        -5.9991    9.8606   -2.5812 H         1 <0>         0.1207
@<TRIPOS>BOND
     1    1    2 1
     2    1   31 1
     3    1   32 1
     4    1   33 1
     5    2    7 ar
     6    2    3 ar
     7    3    4 ar
     8    3   34 1
     9    4    5 ar
    10    4   30 1
    11    5    6 ar
    12    5   35 1
    13    6    7 ar
    14    6   36 1
    15    7    8 1
    16    8    9 2
    17    8   10 2
    18    8   11 1
    19   11   12 1
    20   11   37 1
    21   12   17 ar
    22   12   13 ar
    23   13   14 ar
    24   13   38 1
    25   14   15 ar
    26   14   39 1
    27   15   16 ar
    28   15   18 1
    29   16   17 ar
    30   16   40 1
    31   17   41 1
    32   18   19 2
    33   18   20 2
    34   18   21 1
    35   21   22 1
    36   21   23 1
    37   22   42 1
    38   22   43 1
    39   22   44 1
    40   23   24 1
    41   23   45 1
    42   23   46 1
    43   24   29 ar
    44   24   25 ar
    45   25   26 ar
    46   25   47 1
    47   26   27 ar
    48   26   48 1
    49   27   28 ar
    50   27   49 1
    51   28   29 ar
    52   28   50 1
    53   29   51 1
@<TRIPOS>MOLECULE
ZINC39888019
   48    50     0     0     0
SMALL
USER_CHARGES

@<TRIPOS>ATOM
      1 C1         -0.0187    1.5258    0.0104 C.3       1 <0>        -0.1528
      2 C2          0.0021   -0.0041    0.0020 C.3       1 <0>         0.0511
      3 O1         -1.3386   -0.4987    0.0122 O.3       1 <0>        -0.3014
      4 C3         -1.4984   -1.8488    0.0064 C.ar      1 <0>         0.1287
      5 C4         -0.3853   -2.6770   -0.0029 C.ar      1 <0>        -0.1847
      6 C5         -0.5408   -4.0468   -0.0092 C.ar      1 <0>        -0.0622
      7 C6         -1.8235   -4.6045   -0.0057 C.ar      1 <0>        -0.0748
      8 C7         -2.9449   -3.7686    0.0042 C.ar      1 <0>        -0.1373
      9 C8         -2.7795   -2.3966    0.0157 C.ar      1 <0>         0.0941
     10 O2         -3.8675   -1.5808    0.0305 O.3       1 <0>        -0.3042
     11 C9         -5.1503   -2.2104    0.0394 C.3       1 <0>         0.0237
     12 C10        -1.9927   -6.0660   -0.0129 C.2       1 <0>         0.2118
     13 N1         -0.9446   -6.8443   -0.0226 N.2       1 <0>        -0.3776
     14 N2         -1.0930   -8.1257   -0.0289 N.2       1 <0>        -0.3443
     15 C11        -0.0361   -8.9106   -0.0386 C.2       1 <0>         0.3827
     16 N3          1.2941   -8.5476   -0.0374 N.am      1 <0>        -0.6776
     17 C12         2.2724   -9.4368   -0.0476 C.2       1 <0>         0.5237
     18 O3          3.4401   -9.1100   -0.0464 O.2       1 <0>        -0.4774
     19 C13         1.8415  -10.8947   -0.0614 C.3       1 <0>        -0.0904
     20 H1          2.1820  -11.3987   -0.9660 H         1 <0>         0.1608
     21 S1          0.0116  -10.6965   -0.0487 S.3       1 <0>        -0.0061
     22 C14         2.3240  -11.6275    1.1920 C.3       1 <0>        -0.0578
     23 C15         1.9834  -13.0913    1.0805 C.ar      1 <0>        -0.0814
     24 C16         0.7693  -13.5560    1.5508 C.ar      1 <0>        -0.1007
     25 C17         0.4563  -14.8983    1.4483 C.ar      1 <0>        -0.0873
     26 C18         1.3581  -15.7768    0.8752 C.ar      1 <0>        -0.0869
     27 C19         2.5728  -15.3114    0.4049 C.ar      1 <0>        -0.0890
     28 C20         2.8828  -13.9680    0.5029 C.ar      1 <0>        -0.1029
     29 Br1         0.9307  -17.6136    0.7354 Br        1 <0>        -0.0466
     30 H2          1.0039    1.9031    0.0027 H         1 <0>         0.0797
     31 H3         -0.5459    1.8868   -0.8726 H         1 <0>         0.0675
     32 H4         -0.5289    1.8773    0.9072 H         1 <0>         0.0675
     33 H5          0.5123   -0.3556   -0.8948 H         1 <0>         0.0639
     34 H6          0.5293   -0.3651    0.8851 H         1 <0>         0.0639
     35 H7          0.6057   -2.2475   -0.0056 H         1 <0>         0.1400
     36 H8          0.3275   -4.6891   -0.0172 H         1 <0>         0.1360
     37 H9         -3.9375   -4.1943    0.0069 H         1 <0>         0.1434
     38 H10        -5.2586   -2.8269   -0.8529 H         1 <0>         0.0566
     39 H11        -5.2416   -2.8365    0.9269 H         1 <0>         0.0567
     40 H12        -5.9291   -1.4479    0.0509 H         1 <0>         0.1027
     41 H13        -2.9838   -6.4949   -0.0102 H         1 <0>         0.1180
     42 H14         1.5206   -7.6045   -0.0283 H         1 <0>         0.4207
     43 H15         3.4037  -11.5119    1.2874 H         1 <0>         0.1089
     44 H16         1.8345  -11.2064    2.0701 H         1 <0>         0.0957
     45 H17         0.0655  -12.8701    1.9985 H         1 <0>         0.1381
     46 H18        -0.4921  -15.2614    1.8161 H         1 <0>         0.1362
     47 H19         3.2772  -15.9969   -0.0427 H         1 <0>         0.1356
     48 H20         3.8295  -13.6038    0.1320 H         1 <0>         0.1358
@<TRIPOS>BOND
     1    1    2 1
     2    1   30 1
     3    1   31 1
     4    1   32 1
     5    2    3 1
     6    2   33 1
     7    2   34 1
     8    3    4 1
     9    4    9 ar
    10    4    5 ar
    11    5    6 ar
    12    5   35 1
    13    6    7 ar
    14    6   36 1
    15    7    8 ar
    16    7   12 1
    17    8    9 ar
    18    8   37 1
    19    9   10 1
    20   10   11 1
    21   11   38 1
    22   11   39 1
    23   11   40 1
    24   12   13 2
    25   12   41 1
    26   13   14 1
    27   14   15 2
    28   15   21 1
    29   15   16 1
    30   16   17 am
    31   16   42 1
    32   17   18 2
    33   17   19 1
    34   19   20 1
    35   19   21 1
    36   19   22 1
    37   22   23 1
    38   22   43 1
    39   22   44 1
    40   23   28 ar
    41   23   24 ar
    42   24   25 ar
    43   24   45 1
    44   25   26 ar
    45   25   46 1
    46   26   27 ar
    47   26   29 1
    48   27   28 ar
    49   27   47 1
    50   28   48 1
@<TRIPOS>MOLECULE
ZINC10308597
   58    62     0     0     0
SMALL
USER_CHARGES

@<TRIPOS>ATOM
      1 C1         -0.0160    1.3319    0.0094 C.2       1 <0>        -0.1884
      2 C2          0.0021   -0.0041    0.0020 C.2       1 <0>         0.1295
      3 C3         -1.1784   -0.8902    0.0021 C.ar      1 <0>        -0.0489
      4 C4         -2.5500   -0.6688    0.0094 C.ar      1 <0>        -0.0913
      5 C5         -3.4177   -1.7432    0.0076 C.ar      1 <0>        -0.0859
      6 C6         -2.9304   -3.0407   -0.0015 C.ar      1 <0>        -0.1212
      7 C7         -1.5714   -3.2797   -0.0084 C.ar      1 <0>        -0.0409
      8 C8         -0.6808   -2.2087   -0.0071 C.ar      1 <0>        -0.1617
      9 C9          0.7870   -2.1088   -0.0127 C.2       1 <0>         0.5632
     10 O1          1.5581   -3.0497   -0.0214 O.2       1 <0>        -0.4980
     11 N1          1.1402   -0.8110   -0.0132 N.am      1 <0>        -0.5602
     12 C10         2.5192   -0.3166   -0.0241 C.3       1 <0>         0.1385
     13 C11         3.0133   -0.1518    1.4145 C.3       1 <0>        -0.1630
     14 C12         4.4318    0.3567    1.4033 C.2       1 <0>         0.5202
     15 O2          4.9924    0.5667    0.3486 O.2       1 <0>        -0.5304
     16 N2          5.0775    0.5782    2.5654 N.am      1 <0>        -0.7287
     17 C13         6.4565    1.0726    2.5545 C.3       1 <0>         0.1967
     18 C14         6.9432    1.2348    3.9715 C.2       1 <0>        -0.2375
     19 C15         6.9993    2.3926    4.6651 C.2       1 <0>         0.0831
     20 N3          7.4936    2.1151    5.8999 N.pl3     1 <0>        -0.3154
     21 N4          7.7493    0.7394    5.9650 N.2       1 <0>        -0.2689
     22 C16         7.4146    0.2049    4.8094 C.2       1 <0>         0.1394
     23 C17         7.5193   -1.2311    4.4505 C.ar      1 <0>        -0.0343
     24 C18         6.5714   -1.8123    3.6105 C.ar      1 <0>        -0.0733
     25 C19         6.6729   -3.1479    3.2791 C.ar      1 <0>        -0.1521
     26 C20         7.7152   -3.9108    3.7800 C.ar      1 <0>         0.1132
     27 C21         8.6595   -3.3371    4.6159 C.ar      1 <0>        -0.1540
     28 C22         8.5690   -2.0009    4.9479 C.ar      1 <0>        -0.0583
     29 F1          7.8108   -5.2181    3.4529 F         1 <0>        -0.1350
     30 C23         7.7100    3.0424    6.9276 C.ar      1 <0>         0.1545
     31 C24         7.4066    4.3830    6.7304 C.ar      1 <0>        -0.1390
     32 C25         7.6207    5.2946    7.7456 C.ar      1 <0>        -0.0917
     33 C26         8.1370    4.8736    8.9574 C.ar      1 <0>        -0.1251
     34 C27         8.4402    3.5392    9.1569 C.ar      1 <0>        -0.0943
     35 C28         8.2231    2.6218    8.1475 C.ar      1 <0>        -0.1171
     36 H1          0.9118    1.8846    0.0035 H         1 <0>         0.1162
     37 H2         -0.9586    1.8591    0.0167 H         1 <0>         0.1293
     38 H3         -2.9362    0.3398    0.0168 H         1 <0>         0.1345
     39 H4         -4.4839   -1.5712    0.0136 H         1 <0>         0.1366
     40 H5         -3.6202   -3.8717   -0.0028 H         1 <0>         0.1366
     41 H6         -1.1996   -4.2937   -0.0147 H         1 <0>         0.1358
     42 H7          3.1565   -1.0291   -0.5478 H         1 <0>         0.1020
     43 H8          2.5559    0.6464   -0.5334 H         1 <0>         0.0979
     44 H9          2.3760    0.5607    1.9382 H         1 <0>         0.1014
     45 H10         2.9766   -1.1148    1.9238 H         1 <0>         0.1018
     46 H11         4.6292    0.4102    3.4090 H         1 <0>         0.4031
     47 H12         7.0938    0.3600    2.0308 H         1 <0>         0.0835
     48 H13         6.4933    2.0356    2.0452 H         1 <0>         0.0812
     49 H14         6.7039    3.3661    4.3025 H         1 <0>         0.1842
     50 H15         5.7584   -1.2184    3.2199 H         1 <0>         0.1426
     51 H16         5.9385   -3.5992    2.6284 H         1 <0>         0.1413
     52 H17         9.4701   -3.9356    5.0047 H         1 <0>         0.1414
     53 H18         9.3083   -1.5533    5.5956 H         1 <0>         0.1376
     54 H19         7.0039    4.7126    5.7840 H         1 <0>         0.1306
     55 H20         7.3848    6.3374    7.5928 H         1 <0>         0.1350
     56 H21         8.3042    5.5884    9.7495 H         1 <0>         0.1310
     57 H22         8.8434    3.2135   10.1043 H         1 <0>         0.1341
     58 H23         8.4559    1.5791    8.3054 H         1 <0>         0.1383
@<TRIPOS>BOND
     1    1    2 2
     2    1   36 1
     3    1   37 1
     4    2   11 1
     5    2    3 1
     6    3    8 ar
     7    3    4 ar
     8    4    5 ar
     9    4   38 1
    10    5    6 ar
    11    5   39 1
    12    6    7 ar
    13    6   40 1
    14    7    8 ar
    15    7   41 1
    16    8    9 1
    17    9   10 2
    18    9   11 am
    19   11   12 1
    20   12   13 1
    21   12   42 1
    22   12   43 1
    23   13   14 1
    24   13   44 1
    25   13   45 1
    26   14   15 2
    27   14   16 am
    28   16   17 1
    29   16   46 1
    30   17   18 1
    31   17   47 1
    32   17   48 1
    33   18   22 1
    34   18   19 2
    35   19   20 1
    36   19   49 1
    37   20   21 1
    38   20   30 1
    39   21   22 2
    40   22   23 1
    41   23   28 ar
    42   23   24 ar
    43   24   25 ar
    44   24   50 1
    45   25   26 ar
    46   25   51 1
    47   26   27 ar
    48   26   29 1
    49   27   28 ar
    50   27   52 1
    51   28   53 1
    52   30   35 ar
    53   30   31 ar
    54   31   32 ar
    55   31   54 1
    56   32   33 ar
    57   32   55 1
    58   33   34 ar
    59   33   56 1
    60   34   35 ar
    61   34   57 1
    62   35   58 1
@<TRIPOS>MOLECULE
ZINC09630285
   49    51     0     0     0
SMALL
USER_CHARGES
ethyl 8-[3-(4-chlorophenyl)sulfanylpropanoylamino]-9-cyano-7-thia-4-azabicyclo[4.3.0]nona-8,10-diene-4-carboxylate
@<TRIPOS>ATOM
      1 C1          7.4979   -4.7686   -3.2926 C.3       1 <0>        -0.1541
      2 C2          8.1141   -3.5170   -2.6643 C.3       1 <0>         0.0819
      3 O1          7.1486   -2.8966   -1.7748 O.3       1 <0>        -0.3689
      4 C3          7.5367   -1.7757   -1.1377 C.2       1 <0>         0.6579
      5 O2          8.6516   -1.3283   -1.3200 O.2       1 <0>        -0.5659
      6 N1          6.6885   -1.1501   -0.2977 N.am      1 <0>        -0.5953
      7 C4          7.0834    0.0761    0.4121 C.3       1 <0>         0.1297
      8 C5          6.2119    1.2428   -0.0565 C.3       1 <0>        -0.0807
      9 C6          4.7501    0.8142   -0.0409 C.2       1 <0>        -0.0452
     10 C7          4.4009   -0.4915   -0.0439 C.2       1 <0>        -0.2424
     11 S1          2.6315   -0.4897   -0.0263 S.3       1 <0>         0.2894
     12 C8          2.3548    1.2208   -0.0139 C.2       1 <0>         0.0913
     13 C9          3.6371    1.7485   -0.0290 C.2       1 <0>        -0.1273
     14 C10         3.8567    3.1636   -0.0289 C.1       1 <0>         0.2642
     15 N2          4.0309    4.2861   -0.0288 N.1       1 <0>        -0.4164
     16 N3          1.1435    1.8984    0.0013 N.am      1 <0>        -0.6189
     17 C11        -0.0144    1.2087    0.0087 C.2       1 <0>         0.5188
     18 O3          0.0021   -0.0041    0.0020 O.2       1 <0>        -0.4910
     19 C12        -1.3296    1.9443    0.0189 C.3       1 <0>        -0.1208
     20 C13        -2.4789    0.9344    0.0189 C.3       1 <0>        -0.1016
     21 S2         -4.0620    1.8200    0.0312 S.3       1 <0>        -0.0978
     22 C14        -5.2687    0.5360    0.0300 C.ar      1 <0>        -0.0815
     23 C15        -4.8691   -0.7949    0.0150 C.ar      1 <0>        -0.1201
     24 C16        -5.8171   -1.7989    0.0194 C.ar      1 <0>        -0.0889
     25 C17        -7.1640   -1.4808    0.0275 C.ar      1 <0>        -0.0391
     26 C18        -7.5651   -0.1562    0.0366 C.ar      1 <0>        -0.0904
     27 C19        -6.6218    0.8522    0.0381 C.ar      1 <0>        -0.0864
     28 Cl1        -8.3529   -2.7458    0.0268 Cl        1 <0>        -0.0638
     29 C20         5.3278   -1.6695   -0.0558 C.3       1 <0>         0.2033
     30 H1          7.2235   -5.4722   -2.5066 H         1 <0>         0.0677
     31 H2          6.6086   -4.4909   -3.8584 H         1 <0>         0.0672
     32 H3          8.2226   -5.2344   -3.9604 H         1 <0>         0.0836
     33 H4          8.3885   -2.8134   -3.4503 H         1 <0>         0.0714
     34 H5          9.0034   -3.7947   -2.0985 H         1 <0>         0.0721
     35 H6          6.9523   -0.0671    1.4846 H         1 <0>         0.0850
     36 H7          8.1296    0.2970    0.2005 H         1 <0>         0.1068
     37 H8          6.3495    2.0919    0.6129 H         1 <0>         0.0930
     38 H9          6.4973    1.5267   -1.0695 H         1 <0>         0.0884
     39 H10         1.1304    2.8683    0.0067 H         1 <0>         0.4249
     40 H11        -1.3916    2.5653    0.9126 H         1 <0>         0.1176
     41 H12        -1.4000    2.5750   -0.8673 H         1 <0>         0.1175
     42 H13        -2.4169    0.3134   -0.8748 H         1 <0>         0.1025
     43 H14        -2.4084    0.3038    0.9051 H         1 <0>         0.1027
     44 H15        -3.8182   -1.0437    0.0042 H         1 <0>         0.1351
     45 H16        -5.5072   -2.8335    0.0126 H         1 <0>         0.1388
     46 H17        -8.6168    0.0889    0.0429 H         1 <0>         0.1408
     47 H18        -6.9353    1.8857    0.0459 H         1 <0>         0.1390
     48 H19         5.2910   -2.1807    0.9061 H         1 <0>         0.0958
     49 H20         5.0452   -2.3564   -0.8536 H         1 <0>         0.1103
@<TRIPOS>BOND
     1    1    2 1
     2    1   30 1
     3    1   31 1
     4    1   32 1
     5    2    3 1
     6    2   33 1
     7    2   34 1
     8    3    4 1
     9    4    5 2
    10    4    6 am
    11    6   29 1
    12    6    7 1
    13    7    8 1
    14    7   35 1
    15    7   36 1
    16    8    9 1
    17    8   37 1
    18    8   38 1
    19    9   13 1
    20    9   10 2
    21   10   11 1
    22   10   29 1
    23   11   12 1
    24   12   13 2
    25   12   16 1
    26   13   14 1
    27   14   15 3
    28   16   17 am
    29   16   39 1
    30   17   18 2
    31   17   19 1
    32   19   20 1
    33   19   40 1
    34   19   41 1
    35   20   21 1
    36   20   42 1
    37   20   43 1
    38   21   22 1
    39   22   27 ar
    40   22   23 ar
    41   23   24 ar
    42   23   44 1
    43   24   25 ar
    44   24   45 1
    45   25   26 ar
    46   25   28 1
    47   26   27 ar
    48   26   46 1
    49   27   47 1
    50   29   48 1
    51   29   49 1
@<TRIPOS>MOLECULE
ZINC12590482
   58    61     0     0     0
SMALL
USER_CHARGES
[1-[(2-chlorophenyl)methyl]triazol-4-yl]-[4-[(1R)-1-hydroxy-3-phenyl-propyl]-1-piperidyl]methanone
@<TRIPOS>ATOM
      1 C1         -0.5987    1.8206   13.3399 C.ar      1 <0>        -0.1261
      2 C2          0.1721    1.0927   12.4527 C.ar      1 <0>        -0.1180
      3 C3          1.2333    1.6951   11.8034 C.ar      1 <0>        -0.1185
      4 C4          1.5241    3.0254   12.0415 C.ar      1 <0>        -0.0814
      5 C5          0.7569    3.7518   12.9330 C.ar      1 <0>        -0.1193
      6 C6         -0.3079    3.1508   13.5780 C.ar      1 <0>        -0.1180
      7 C7          2.6814    3.6821   11.3340 C.3       1 <0>        -0.0779
      8 C8          2.1954    4.2892   10.0164 C.3       1 <0>        -0.1457
      9 C9          3.3703    4.9560    9.2980 C.3       1 <0>         0.1116
     10 H1          3.8392    5.6806    9.9637 H         1 <0>         0.0995
     11 C10         2.8624    5.6697    8.0436 C.3       1 <0>        -0.1205
     12 C11         4.0378    6.3365    7.3253 C.3       1 <0>        -0.1233
     13 C12         3.5208    7.0789    6.0891 C.3       1 <0>         0.1107
     14 N1          2.7600    6.1377    5.2560 N.am      1 <0>        -0.5965
     15 C13         1.6612    5.3797    5.8700 C.3       1 <0>         0.0863
     16 C14         2.2026    4.6523    7.1100 C.3       1 <0>        -0.1345
     17 C15         3.0606    5.9768    3.9521 C.2       1 <0>         0.6062
     18 O1          4.0493    6.5095    3.4859 O.2       1 <0>        -0.5387
     19 C16         2.1902    5.1545    3.0905 C.2       1 <0>        -0.1008
     20 C17         2.4531    4.7975    1.7985 C.2       1 <0>         0.1029
     21 N2          1.4110    4.0519    1.3795 N.pl3     1 <0>        -0.3516
     22 N3          0.5111    3.9738    2.4519 N.2       1 <0>        -0.0540
     23 N4          1.0043    4.6298    3.4440 N.2       1 <0>        -0.2062
     24 C18         1.2473    3.4452    0.0561 C.3       1 <0>         0.1618
     25 C19         1.0119    1.9645    0.2079 C.ar      1 <0>        -0.1122
     26 C20        -0.2713    1.4567    0.1274 C.ar      1 <0>        -0.0720
     27 C21        -0.4874    0.0985    0.2661 C.ar      1 <0>        -0.1149
     28 C22         0.5797   -0.7530    0.4851 C.ar      1 <0>        -0.0902
     29 C23         1.8630   -0.2466    0.5654 C.ar      1 <0>        -0.1124
     30 C24         2.0799    1.1131    0.4270 C.ar      1 <0>        -0.0170
     31 Cl1         3.6916    1.7500    0.5283 Cl        1 <0>        -0.0617
     32 O2          4.3272    3.9620    8.9261 O.3       1 <0>        -0.5572
     33 H2         -1.4282    1.3500   13.8466 H         1 <0>         0.1205
     34 H3         -0.0551    0.0534   12.2666 H         1 <0>         0.1209
     35 H4          1.8355    1.1265   11.1103 H         1 <0>         0.1201
     36 H5          0.9868    4.7899   13.1224 H         1 <0>         0.1202
     37 H6         -0.9102    3.7196   14.2709 H         1 <0>         0.1211
     38 H7          3.4514    2.9383   11.1292 H         1 <0>         0.0783
     39 H8          3.0946    4.4684   11.9658 H         1 <0>         0.0711
     40 H9          1.4254    5.0330   10.2212 H         1 <0>         0.0733
     41 H10         1.7822    3.5030    9.3846 H         1 <0>         0.0701
     42 H11         2.1330    6.4281    8.3278 H         1 <0>         0.0812
     43 H12         4.7559    5.5758    7.0190 H         1 <0>         0.0747
     44 H13         4.5222    7.0439    7.9984 H         1 <0>         0.0759
     45 H14         4.3633    7.4720    5.5200 H         1 <0>         0.0945
     46 H15         2.8727    7.8985    6.3995 H         1 <0>         0.0688
     47 H16         0.8645    6.0635    6.1629 H         1 <0>         0.0682
     48 H17         1.2763    4.6513    5.1563 H         1 <0>         0.1298
     49 H18         2.9380    3.9074    6.8057 H         1 <0>         0.0658
     50 H19         1.3807    4.1606    7.6303 H         1 <0>         0.0794
     51 H20         3.3277    5.0623    1.2228 H         1 <0>         0.2023
     52 H21         2.1488    3.6112   -0.5337 H         1 <0>         0.1186
     53 H22         0.3943    3.8989   -0.4486 H         1 <0>         0.1149
     54 H23        -1.1047    2.1207   -0.0485 H         1 <0>         0.1377
     55 H24        -1.4901   -0.2977    0.2031 H         1 <0>         0.1357
     56 H25         0.4103   -1.8141    0.5931 H         1 <0>         0.1370
     57 H26         2.6964   -0.9118    0.7365 H         1 <0>         0.1378
     58 H27         3.9784    3.2827    8.3328 H         1 <0>         0.3714
@<TRIPOS>BOND
     1    1    6 ar
     2    1    2 ar
     3    1   33 1
     4    2    3 ar
     5    2   34 1
     6    3    4 ar
     7    3   35 1
     8    4    5 ar
     9    4    7 1
    10    5    6 ar
    11    5   36 1
    12    6   37 1
    13    7    8 1
    14    7   38 1
    15    7   39 1
    16    8    9 1
    17    8   40 1
    18    8   41 1
    19    9   10 1
    20    9   11 1
    21    9   32 1
    22   11   16 1
    23   11   12 1
    24   11   42 1
    25   12   13 1
    26   12   43 1
    27   12   44 1
    28   13   14 1
    29   13   45 1
    30   13   46 1
    31   14   15 1
    32   14   17 am
    33   15   16 1
    34   15   47 1
    35   15   48 1
    36   16   49 1
    37   16   50 1
    38   17   18 2
    39   17   19 1
    40   19   23 1
    41   19   20 2
    42   20   21 1
    43   20   51 1
    44   21   22 1
    45   21   24 1
    46   22   23 2
    47   24   25 1
    48   24   52 1
    49   24   53 1
    50   25   30 ar
    51   25   26 ar
    52   26   27 ar
    53   26   54 1
    54   27   28 ar
    55   27   55 1
    56   28   29 ar
    57   28   56 1
    58   29   30 ar
    59   29   57 1
    60   30   31 1
    61   32   58 1
@<TRIPOS>MOLECULE
ZINC21238535
   61    64     0     0     0
SMALL
USER_CHARGES
(4S,7R)-7-(3-methoxyphenyl)-4-(3-methoxy-2-propoxy-phenyl)-1,3,4,6,7,8-hexahydroquinoline-2,5-dione
@<TRIPOS>ATOM
      1 C1         -2.1820    2.5087    7.8794 C.3       1 <0>        -0.1509
      2 C2         -2.2232    1.6455    6.6168 C.3       1 <0>        -0.1228
      3 C3         -3.2023    2.2570    5.6127 C.3       1 <0>         0.0644
      4 O1         -3.2408    1.4508    4.4335 O.3       1 <0>        -0.3117
      5 C4         -4.0684    1.8579    3.4340 C.ar      1 <0>         0.0805
      6 C5         -3.6005    2.7149    2.4508 C.ar      1 <0>        -0.0579
      7 C6         -4.4444    3.1315    1.4382 C.ar      1 <0>        -0.1504
      8 C7         -5.7528    2.6867    1.3977 C.ar      1 <0>        -0.0806
      9 C8         -6.2259    1.8316    2.3755 C.ar      1 <0>        -0.1988
     10 C9         -5.3868    1.4143    3.3962 C.ar      1 <0>         0.1127
     11 O2         -5.8508    0.5736    4.3591 O.3       1 <0>        -0.3046
     12 C10        -7.2146    0.1593    4.2564 C.3       1 <0>         0.0211
     13 C11        -2.1734    3.1977    2.4888 C.3       1 <0>         0.0063
     14 H1         -1.6685    2.7523    3.3587 H         1 <0>         0.1206
     15 C12        -2.1536    4.7238    2.5890 C.3       1 <0>        -0.1384
     16 C13        -2.5888    5.3105    1.2709 C.2       1 <0>         0.5300
     17 O3         -3.2185    6.3464    1.2483 O.2       1 <0>        -0.5069
     18 N1         -2.2808    4.6876    0.1202 N.am      1 <0>        -0.6733
     19 C14        -1.5480    3.5280    0.1150 C.2       1 <0>         0.2217
     20 C15        -1.4622    2.7684    1.2273 C.2       1 <0>        -0.2678
     21 C16        -0.7215    1.5734    1.2432 C.2       1 <0>         0.4018
     22 O4         -0.6544    0.9231    2.2672 O.2       1 <0>        -0.4506
     23 C17        -0.0127    1.0858    0.0080 C.3       1 <0>        -0.1601
     24 C18        -0.7581    1.5955   -1.2299 C.3       1 <0>        -0.0361
     25 H2         -1.7669    1.1596   -1.2794 H         1 <0>         0.0953
     26 C19        -0.8424    3.1218   -1.1548 C.3       1 <0>        -0.0916
     27 C20        -0.0118    1.1870   -2.4738 C.ar      1 <0>        -0.0428
     28 C21         1.2891    1.6132   -2.6702 C.ar      1 <0>        -0.1519
     29 C22         1.9767    1.2394   -3.8098 C.ar      1 <0>        -0.0755
     30 C23         1.3652    0.4395   -4.7559 C.ar      1 <0>        -0.2084
     31 C24         0.0603    0.0110   -4.5614 C.ar      1 <0>         0.1308
     32 C25        -0.6256    0.3825   -3.4138 C.ar      1 <0>        -0.1440
     33 O5         -0.5432   -0.7763   -5.4903 O.3       1 <0>        -0.3171
     34 C26         0.2253   -1.1245   -6.6436 C.3       1 <0>         0.0232
     35 H3         -1.4781    2.0690    8.6013 H         1 <0>         0.0637
     36 H4         -3.1861    2.5526    8.3265 H         1 <0>         0.0561
     37 H5         -1.8522    3.5251    7.6181 H         1 <0>         0.0562
     38 H6         -1.2191    1.6016    6.1697 H         1 <0>         0.0740
     39 H7         -2.5529    0.6291    6.8781 H         1 <0>         0.0731
     40 H8         -4.2064    2.3009    6.0598 H         1 <0>         0.0522
     41 H9         -2.8726    3.2734    5.3514 H         1 <0>         0.0490
     42 H10        -4.0796    3.8027    0.6748 H         1 <0>         0.1264
     43 H11        -6.4077    3.0109    0.6025 H         1 <0>         0.1273
     44 H12        -7.2495    1.4885    2.3437 H         1 <0>         0.1328
     45 H13        -7.4574   -0.5134    5.0922 H         1 <0>         0.1035
     46 H14        -7.3664   -0.3697    3.3040 H         1 <0>         0.0572
     47 H15        -7.8698    1.0421    4.2940 H         1 <0>         0.0561
     48 H16        -2.8418    5.0480    3.3835 H         1 <0>         0.1125
     49 H17        -1.1343    5.0625    2.8261 H         1 <0>         0.1134
     50 H18        -2.6175    5.1069   -0.8394 H         1 <0>         0.4400
     51 H19         1.0190    1.4673    0.0026 H         1 <0>         0.1052
     52 H20         0.0031   -0.0141    0.0044 H         1 <0>         0.1018
     53 H21        -1.4026    3.5000   -2.0226 H         1 <0>         0.0965
     54 H22         0.1731    3.5446   -1.1614 H         1 <0>         0.1074
     55 H23         1.7687    2.2388   -1.9320 H         1 <0>         0.1250
     56 H24         2.9927    1.5732   -3.9608 H         1 <0>         0.1264
     57 H25         1.9028    0.1477   -5.6460 H         1 <0>         0.1282
     58 H26        -1.6400    0.0463   -3.2578 H         1 <0>         0.1316
     59 H27        -0.3786   -1.7594   -7.3086 H         1 <0>         0.1032
     60 H28         1.1264   -1.6729   -6.3318 H         1 <0>         0.0575
     61 H29         0.5196   -0.2092   -7.1781 H         1 <0>         0.0572
@<TRIPOS>BOND
     1    1    2 1
     2    1   35 1
     3    1   36 1
     4    1   37 1
     5    2    3 1
     6    2   38 1
     7    2   39 1
     8    3    4 1
     9    3   40 1
    10    3   41 1
    11    4    5 1
    12    5   10 ar
    13    5    6 ar
    14    6    7 ar
    15    6   13 1
    16    7    8 ar
    17    7   42 1
    18    8    9 ar
    19    8   43 1
    20    9   10 ar
    21    9   44 1
    22   10   11 1
    23   11   12 1
    24   12   45 1
    25   12   46 1
    26   12   47 1
    27   13   14 1
    28   13   20 1
    29   13   15 1
    30   15   16 1
    31   15   48 1
    32   15   49 1
    33   16   17 2
    34   16   18 am
    35   18   19 1
    36   18   50 1
    37   19   26 1
    38   19   20 2
    39   20   21 1
    40   21   22 2
    41   21   23 1
    42   23   24 1
    43   23   51 1
    44   23   52 1
    45   24   25 1
    46   24   26 1
    47   24   27 1
    48   26   53 1
    49   26   54 1
    50   27   32 ar
    51   27   28 ar
    52   28   29 ar
    53   28   55 1
    54   29   30 ar
    55   29   56 1
    56   30   31 ar
    57   30   57 1
    58   31   32 ar
    59   31   33 1
    60   32   58 1
    61   33   34 1
    62   34   59 1
    63   34   60 1
    64   34   61 1
@<TRIPOS>MOLECULE
ZINC41253784
   56    59     0     0     0
SMALL
USER_CHARGES

@<TRIPOS>ATOM
      1 C1         -0.0167    1.3786    0.0096 C.ar      1 <0>        -0.0481
      2 C2          1.1689    2.0869    0.0021 C.ar      1 <0>        -0.1985
      3 C3          2.3811    1.4088   -0.0131 C.ar      1 <0>         0.2466
      4 C4          2.3964    0.0198   -0.0206 C.ar      1 <0>        -0.1987
      5 C5          1.2071   -0.6823   -0.0130 C.ar      1 <0>        -0.0482
      6 C6          0.0021   -0.0041    0.0020 C.ar      1 <0>        -0.1752
      7 C7         -1.2936   -0.7736    0.0107 C.3       1 <0>         0.1697
      8 N1         -1.7272   -1.0155   -1.3676 N.am      1 <0>        -0.7240
      9 C8         -2.8689   -1.6908   -1.6062 C.2       1 <0>         0.5221
     10 O1         -3.5374   -2.0981   -0.6799 O.2       1 <0>        -0.5372
     11 C9         -3.3148   -1.9396   -3.0241 C.3       1 <0>        -0.1564
     12 C10        -4.6303   -2.7209   -3.0152 C.3       1 <0>         0.1283
     13 N2         -5.0639   -2.9628   -4.3935 N.am      1 <0>        -0.3396
     14 C11        -4.6617   -4.0849   -5.0192 C.2       1 <0>         0.4749
     15 O2         -3.9455   -4.8873   -4.4423 O.2       1 <0>        -0.5224
     16 C12        -5.0750   -4.3270   -6.3480 C.2       1 <0>        -0.1798
     17 C13        -5.8750   -3.3992   -6.9467 C.2       1 <0>        -0.0625
     18 C14        -6.2425   -2.2528   -6.2039 C.2       1 <0>         0.0985
     19 N3         -5.8214   -2.1015   -4.9703 N.2       1 <0>        -0.2097
     20 C15        -7.1116   -1.2205   -6.8198 C.ar      1 <0>        -0.0273
     21 C16        -7.5706   -1.3815   -8.1259 C.ar      1 <0>        -0.0881
     22 C17        -8.3792   -0.4186   -8.6942 C.ar      1 <0>        -0.1080
     23 C18        -8.7347    0.7060   -7.9692 C.ar      1 <0>        -0.0256
     24 C19        -8.2814    0.8706   -6.6715 C.ar      1 <0>        -0.1096
     25 C20        -7.4766   -0.0891   -6.0924 C.ar      1 <0>        -0.0737
     26 Cl1        -9.7519    1.9141   -8.6900 Cl        1 <0>        -0.0639
     27 N4          3.5820    2.1220   -0.0212 N.pl3     1 <0>        -0.6355
     28 C21         3.7089    3.5867   -0.0086 C.3       1 <0>         0.1117
     29 C22         5.2159    3.9165   -0.0506 C.3       1 <0>        -0.1330
     30 C23         5.8366    2.6294   -0.6552 C.3       1 <0>        -0.1343
     31 C24         4.9324    1.5307   -0.0372 C.3       1 <0>         0.1098
     32 H1         -0.9595    1.9052    0.0260 H         1 <0>         0.1228
     33 H2          1.1535    3.1668    0.0077 H         1 <0>         0.1205
     34 H3          3.3371   -0.5105   -0.0328 H         1 <0>         0.1210
     35 H4          1.2182   -1.7622   -0.0189 H         1 <0>         0.1230
     36 H5         -1.1466   -1.7270    0.5180 H         1 <0>         0.0744
     37 H6         -2.0553   -0.1966    0.5352 H         1 <0>         0.0746
     38 H7         -1.1925   -0.6897   -2.1085 H         1 <0>         0.4026
     39 H8         -3.4619   -0.9862   -3.5313 H         1 <0>         0.1031
     40 H9         -2.5532   -2.5166   -3.5485 H         1 <0>         0.1018
     41 H10        -4.4833   -3.6744   -2.5079 H         1 <0>         0.1170
     42 H11        -5.3920   -2.1440   -2.4907 H         1 <0>         0.1114
     43 H12        -4.7667   -5.2188   -6.8734 H         1 <0>         0.1679
     44 H13        -6.2188   -3.5357   -7.9614 H         1 <0>         0.1559
     45 H14        -7.2935   -2.2583   -8.6923 H         1 <0>         0.1386
     46 H15        -8.7351   -0.5423   -9.7063 H         1 <0>         0.1402
     47 H16        -8.5611    1.7498   -6.1101 H         1 <0>         0.1390
     48 H17        -7.1271    0.0380   -5.0784 H         1 <0>         0.1432
     49 H18         3.2125    4.0092   -0.8822 H         1 <0>         0.0620
     50 H19         3.2665    3.9893    0.9026 H         1 <0>         0.0621
     51 H20         5.4050    4.7752   -0.6947 H         1 <0>         0.0830
     52 H21         5.5997    4.0946    0.9539 H         1 <0>         0.0770
     53 H22         5.7636    2.6341   -1.7427 H         1 <0>         0.0765
     54 H23         6.8713    2.5071   -0.3351 H         1 <0>         0.0846
     55 H24         5.2559    1.2960    0.9769 H         1 <0>         0.0634
     56 H25         4.9469    0.6347   -0.6579 H         1 <0>         0.0719
@<TRIPOS>BOND
     1    1    6 ar
     2    1    2 ar
     3    1   32 1
     4    2    3 ar
     5    2   33 1
     6    3    4 ar
     7    3   27 1
     8    4    5 ar
     9    4   34 1
    10    5    6 ar
    11    5   35 1
    12    6    7 1
    13    7    8 1
    14    7   36 1
    15    7   37 1
    16    8    9 am
    17    8   38 1
    18    9   10 2
    19    9   11 1
    20   11   12 1
    21   11   39 1
    22   11   40 1
    23   12   13 1
    24   12   41 1
    25   12   42 1
    26   13   19 1
    27   13   14 am
    28   14   15 2
    29   14   16 1
    30   16   17 2
    31   16   43 1
    32   17   18 1
    33   17   44 1
    34   18   19 2
    35   18   20 1
    36   20   25 ar
    37   20   21 ar
    38   21   22 ar
    39   21   45 1
    40   22   23 ar
    41   22   46 1
    42   23   24 ar
    43   23   26 1
    44   24   25 ar
    45   24   47 1
    46   25   48 1
    47   27   31 1
    48   27   28 1
    49   28   29 1
    50   28   49 1
    51   28   50 1
    52   29   30 1
    53   29   51 1
    54   29   52 1
    55   30   31 1
    56   30   53 1
    57   30   54 1
    58   31   55 1
    59   31   56 1
@<TRIPOS>MOLECULE
ZINC28402362
   49    51     0     0     0
SMALL
USER_CHARGES

@<TRIPOS>ATOM
      1 C1          8.2855    3.8484    3.2826 C.ar      1 <0>        -0.2030
      2 C2          7.4128    3.1689    2.4435 C.ar      1 <0>        -0.0187
      3 C3          6.5443    3.9061    1.6579 C.ar      1 <0>        -0.1727
      4 C4          6.5748    5.2928    1.7349 C.ar      1 <0>         0.3358
      5 N1          7.4213    5.9041    2.5465 N.ar      1 <0>        -0.5403
      6 C5          8.2610    5.2284    3.3079 C.ar      1 <0>         0.1503
      7 O1          5.7284    6.0270    0.9698 O.3       1 <0>        -0.2865
      8 C6          5.8087    7.4483    1.0945 C.3       1 <0>         0.0269
      9 C7          4.7861    8.1006    0.1620 C.3       1 <0>         0.4625
     10 F1          3.4997    7.6739    0.5090 F         1 <0>        -0.1726
     11 F2          4.8646    9.4921    0.2840 F         1 <0>        -0.1691
     12 F3          5.0588    7.7323   -1.1598 F         1 <0>        -0.1747
     13 C8          5.5787    3.2138    0.7309 C.3       1 <0>         0.1922
     14 N2          6.1100    3.2377   -0.6342 N.am      1 <0>        -0.7411
     15 C9          5.4114    2.6733   -1.6392 C.2       1 <0>         0.7118
     16 O2          4.3866    2.0642   -1.4001 O.2       1 <0>        -0.5854
     17 N3          5.8489    2.7839   -2.9091 N.am      1 <0>        -0.6305
     18 C10         5.0450    2.2764   -4.0314 C.3       1 <0>         0.1364
     19 C11         4.9096    3.3896   -5.0758 C.3       1 <0>         0.0403
     20 N4          6.2455    3.8798   -5.4403 N.3       1 <0>        -0.5308
     21 C12         6.9248    4.4837   -4.2863 C.3       1 <0>         0.0332
     22 C13         7.1400    3.4209   -3.2100 C.3       1 <0>         0.1204
     23 C14         6.1712    4.8257   -6.5618 C.3       1 <0>         0.1373
     24 C15         7.5611    5.1167   -7.0664 C.2       1 <0>        -0.1296
     25 C16         8.2696    4.4797   -8.0300 C.2       1 <0>        -0.1311
     26 C17         9.5434    4.9254   -8.3314 C.2       1 <0>        -0.1357
     27 C18        10.0454    5.9875   -7.6530 C.2       1 <0>        -0.1195
     28 S1          8.6978    6.3948   -6.5551 S.3       1 <0>         0.0792
     29 Cl1        11.5938    6.7556   -7.8151 Cl        1 <0>         0.0165
     30 H1          8.9731    3.3031    3.9120 H         1 <0>         0.1451
     31 H2          7.4120    2.0896    2.4045 H         1 <0>         0.1489
     32 H3          8.9379    5.7618    3.9589 H         1 <0>         0.1665
     33 H4          5.5962    7.7353    2.1244 H         1 <0>         0.1153
     34 H5          6.8109    7.7807    0.8241 H         1 <0>         0.1145
     35 H6          5.4453    2.1804    1.0508 H         1 <0>         0.0811
     36 H7          4.6183    3.7288    0.7560 H         1 <0>         0.0812
     37 H8          6.9645    3.6597   -0.8148 H         1 <0>         0.3943
     38 H9          5.5416    1.4145   -4.4772 H         1 <0>         0.0756
     39 H10         4.0567    1.9883   -3.6731 H         1 <0>         0.0999
     40 H11         4.4114    2.9977   -5.9625 H         1 <0>         0.0936
     41 H12         4.3224    4.2086   -4.6603 H         1 <0>         0.0438
     42 H13         7.8881    4.8854   -4.6005 H         1 <0>         0.0905
     43 H14         6.3096    5.2875   -3.8818 H         1 <0>         0.0437
     44 H15         7.5362    3.8890   -2.3089 H         1 <0>         0.0778
     45 H16         7.8418    2.6711   -3.5754 H         1 <0>         0.0797
     46 H17         5.5766    4.3908   -7.3652 H         1 <0>         0.1055
     47 H18         5.7054    5.7520   -6.2255 H         1 <0>         0.0550
     48 H19         7.8458    3.6361   -8.5545 H         1 <0>         0.1436
     49 H20        10.1295    4.4355   -9.0947 H         1 <0>         0.1428
@<TRIPOS>BOND
     1    1    6 ar
     2    1    2 ar
     3    1   30 1
     4    2    3 ar
     5    2   31 1
     6    3    4 ar
     7    3   13 1
     8    4    5 ar
     9    4    7 1
    10    5    6 ar
    11    6   32 1
    12    7    8 1
    13    8    9 1
    14    8   33 1
    15    8   34 1
    16    9   10 1
    17    9   11 1
    18    9   12 1
    19   13   14 1
    20   13   35 1
    21   13   36 1
    22   14   15 am
    23   14   37 1
    24   15   16 2
    25   15   17 am
    26   17   22 1
    27   17   18 1
    28   18   19 1
    29   18   38 1
    30   18   39 1
    31   19   20 1
    32   19   40 1
    33   19   41 1
    34   20   21 1
    35   20   23 1
    36   21   22 1
    37   21   42 1
    38   21   43 1
    39   22   44 1
    40   22   45 1
    41   23   24 1
    42   23   46 1
    43   23   47 1
    44   24   28 1
    45   24   25 2
    46   25   26 1
    47   25   48 1
    48   26   27 2
    49   26   49 1
    50   27   28 1
    51   27   29 1
@<TRIPOS>MOLECULE
ZINC05534727
   43    44     0     0     0
SMALL
USER_CHARGES
3-[3-(2,4,6-trimethylphenoxy)sulfonylaminophenyl]prop-2-enoic acid
@<TRIPOS>ATOM
      1 C1          2.6916   -4.0636   -6.0918 C.3       1 <0>        -0.1176
      2 C2          2.6595   -2.9232   -5.1072 C.ar      1 <0>        -0.0582
      3 C3          1.4523   -2.4943   -4.5870 C.ar      1 <0>        -0.1206
      4 C4          1.4202   -1.4492   -3.6842 C.ar      1 <0>        -0.0473
      5 C5          2.6005   -0.8298   -3.2997 C.ar      1 <0>         0.0478
      6 C6          3.8099   -1.2582   -3.8275 C.ar      1 <0>        -0.0622
      7 C7          3.8372   -2.3078   -4.7252 C.ar      1 <0>        -0.1218
      8 C8          5.0933   -0.5835   -3.4167 C.3       1 <0>        -0.1270
      9 O1          2.5716    0.1986   -2.4117 O.3       1 <0>        -0.6777
     10 S1          2.7501   -0.2299   -0.9622 S.o2      1 <0>         2.7726
     11 O2          4.1108   -0.6129   -0.8166 O.2       1 <0>        -0.9707
     12 O3          1.6749   -1.1096   -0.6634 O.2       1 <0>        -0.9652
     13 N1          2.5346    1.1171   -0.0233 N.pl3     1 <0>        -1.0472
     14 C9          1.3025    1.7757   -0.0191 C.ar      1 <0>         0.1298
     15 C10         0.1245    1.0460    0.0993 C.ar      1 <0>        -0.1632
     16 C11        -1.0981    1.6912    0.0985 C.ar      1 <0>        -0.0935
     17 C12        -1.1588    3.0653   -0.0084 C.ar      1 <0>        -0.1223
     18 C13         0.0192    3.8096   -0.1275 C.ar      1 <0>        -0.0152
     19 C14         1.2546    3.1559   -0.1323 C.ar      1 <0>        -0.1213
     20 C15        -0.0416    5.2754   -0.2468 C.2       1 <0>        -0.1270
     21 C16        -1.2355    5.9036   -0.2419 C.2       1 <0>        -0.1346
     22 C17        -1.2960    7.3599   -0.3604 C.2       1 <0>         0.4722
     23 O4         -0.2700    8.0047   -0.4635 O.co2     1 <0>        -0.6328
     24 C18         0.1042   -0.9825   -3.1172 C.3       1 <0>        -0.1318
     25 H1          2.6020   -3.6715   -7.1049 H         1 <0>         0.0768
     26 H2          3.6337   -4.6027   -5.9929 H         1 <0>         0.0710
     27 H3          1.8622   -4.7414   -5.8899 H         1 <0>         0.0715
     28 H4          0.5337   -2.9766   -4.8869 H         1 <0>         0.1382
     29 H5          4.7789   -2.6447   -5.1330 H         1 <0>         0.1377
     30 H6          5.5539   -1.1436   -2.6029 H         1 <0>         0.0955
     31 H7          5.7748   -0.5509   -4.2667 H         1 <0>         0.0766
     32 H8          4.8794    0.4320   -3.0833 H         1 <0>         0.0706
     33 H9          3.2637    1.4488    0.5236 H         1 <0>         0.4289
     34 H10         0.1649   -0.0296    0.1878 H         1 <0>         0.1514
     35 H11        -2.0091    1.1177    0.1859 H         1 <0>         0.1302
     36 H12        -2.1159    3.5657   -0.0037 H         1 <0>         0.1330
     37 H13         2.1683    3.7243   -0.2244 H         1 <0>         0.1311
     38 H14         0.8695    5.8480   -0.3384 H         1 <0>         0.1291
     39 H15        -2.1466    5.3309   -0.1503 H         1 <0>         0.1090
     40 H16        -0.3106   -0.2028   -3.7560 H         1 <0>         0.0811
     41 H17        -0.5897   -1.8219   -3.0713 H         1 <0>         0.0779
     42 H18         0.2611   -0.5854   -2.1143 H         1 <0>         0.0852
     43 O5         -2.4899    7.9880   -0.3555 O.co2     1 <0>        -0.7598
@<TRIPOS>BOND
     1    1    2 1
     2    1   25 1
     3    1   26 1
     4    1   27 1
     5    2    7 ar
     6    2    3 ar
     7    3    4 ar
     8    3   28 1
     9    4    5 ar
    10    4   24 1
    11    5    6 ar
    12    5    9 1
    13    6    7 ar
    14    6    8 1
    15    7   29 1
    16    8   30 1
    17    8   31 1
    18    8   32 1
    19    9   10 1
    20   10   11 2
    21   10   12 2
    22   10   13 1
    23   13   14 1
    24   13   33 1
    25   14   19 ar
    26   14   15 ar
    27   15   16 ar
    28   15   34 1
    29   16   17 ar
    30   16   35 1
    31   17   18 ar
    32   17   36 1
    33   18   19 ar
    34   18   20 1
    35   19   37 1
    36   20   21 2
    37   20   38 1
    38   21   22 1
    39   21   39 1
    40   22   23 2
    41   22   43 1
    42   24   40 1
    43   24   41 1
    44   24   42 1
@<TRIPOS>MOLECULE
ZINC20562100
   41    43     0     0     0
SMALL
USER_CHARGES
(3R)-3-(5-methyl-2-furyl)-3-(2-naphthylsulfonylamino)propanoic acid
@<TRIPOS>ATOM
      1 C1          1.4232    3.1206   -1.5900 C.3       1 <0>        -0.0716
      2 C2          1.9514    1.8515   -0.9724 C.2       1 <0>        -0.0295
      3 C3          3.2079    1.6531   -0.5352 C.2       1 <0>        -0.2082
      4 C4          3.2655    0.3297   -0.0411 C.2       1 <0>        -0.2091
      5 C5          2.0407   -0.2015   -0.2059 C.2       1 <0>        -0.0015
      6 O1          1.2489    0.7248   -0.7705 O.3       1 <0>        -0.1626
      7 C6          1.6271   -1.5988    0.1782 C.3       1 <0>         0.2608
      8 H1          2.5142   -2.2463    0.2401 H         1 <0>         0.1087
      9 C7          0.8803   -1.5608    1.5130 C.3       1 <0>        -0.1659
     10 C8          0.5553   -2.9669    1.9469 C.2       1 <0>         0.4621
     11 O2          0.9785   -3.9068    1.3165 O.co2     1 <0>        -0.6222
     12 O3         -0.2044   -3.1752    3.0338 O.co2     1 <0>        -0.7698
     13 N1          0.7493   -2.1502   -0.8570 N.pl3     1 <0>        -1.0968
     14 S1          1.3865   -3.0635   -2.0827 S.o2      1 <0>         2.6938
     15 O4          0.2944   -3.4717   -2.8950 O.2       1 <0>        -0.9729
     16 O5          2.4905   -2.3342   -2.6008 O.2       1 <0>        -0.9626
     17 C9          2.0463   -4.5257   -1.3539 C.ar      1 <0>        -0.6496
     18 C10         3.3982   -4.5758   -1.0186 C.ar      1 <0>        -0.0335
     19 C11         3.9382   -5.6878   -0.4494 C.ar      1 <0>        -0.1271
     20 C12         3.1259   -6.8084   -0.2055 C.ar      1 <0>        -0.0069
     21 C13         3.6492   -7.9767    0.3744 C.ar      1 <0>        -0.1216
     22 C14         2.8324   -9.0424    0.5963 C.ar      1 <0>        -0.1026
     23 C15         1.4817   -8.9944    0.2560 C.ar      1 <0>        -0.1348
     24 C16         0.9403   -7.8802   -0.3075 C.ar      1 <0>        -0.0806
     25 C17         1.7524   -6.7595   -0.5514 C.ar      1 <0>        -0.0661
     26 C18         1.2294   -5.5914   -1.1321 C.ar      1 <0>         0.0540
     27 H2          2.2255    3.8723   -1.6261 H         1 <0>         0.0858
     28 H3          0.5888    3.5036   -0.9841 H         1 <0>         0.0749
     29 H4          1.0698    2.9122   -2.6106 H         1 <0>         0.0751
     30 H5          4.0174    2.3677   -0.5573 H         1 <0>         0.1432
     31 H6          4.1276   -0.1609    0.3861 H         1 <0>         0.1460
     32 H7          1.5127   -1.0793    2.2734 H         1 <0>         0.0814
     33 H8         -0.0518   -0.9886    1.3955 H         1 <0>         0.0780
     34 H9         -0.3429   -2.1003   -0.7358 H         1 <0>         0.4416
     35 H10         4.0256   -3.7177   -1.2094 H         1 <0>         0.1315
     36 H11         4.9867   -5.7109   -0.1914 H         1 <0>         0.1274
     37 H12         4.6940   -8.0283    0.6433 H         1 <0>         0.1255
     38 H13         3.2370   -9.9389    1.0424 H         1 <0>         0.1206
     39 H14         0.8554   -9.8543    0.4420 H         1 <0>         0.1217
     40 H15        -0.1080   -7.8575   -0.5663 H         1 <0>         0.1284
     41 H16         0.1847   -5.5398   -1.4011 H         1 <0>         0.1352
@<TRIPOS>BOND
     1    1    2 1
     2    1   27 1
     3    1   28 1
     4    1   29 1
     5    2    6 1
     6    2    3 2
     7    3    4 1
     8    3   30 1
     9    4    5 2
    10    4   31 1
    11    5    6 1
    12    5    7 1
    13    7    8 1
    14    7    9 1
    15    7   13 1
    16    9   10 1
    17    9   32 1
    18    9   33 1
    19   10   11 2
    20   10   12 1
    21   13   14 1
    22   13   34 1
    23   14   15 2
    24   14   16 2
    25   14   17 1
    26   17   26 ar
    27   17   18 ar
    28   18   19 ar
    29   18   35 1
    30   19   20 ar
    31   19   36 1
    32   20   25 ar
    33   20   21 ar
    34   21   22 ar
    35   21   37 1
    36   22   23 ar
    37   22   38 1
    38   23   24 ar
    39   23   39 1
    40   24   25 ar
    41   24   40 1
    42   25   26 ar
    43   26   41 1
@<TRIPOS>MOLECULE
ZINC40028884
   48    50     0     0     0
SMALL
USER_CHARGES

@<TRIPOS>ATOM
      1 C1          4.3008   -0.7521   -1.5082 C.3       1 <0>        -0.1128
      2 C2          3.1777   -1.6811   -1.1256 C.ar      1 <0>        -0.1088
      3 C3          2.0939   -1.8369   -1.9717 C.ar      1 <0>        -0.1086
      4 C4          1.0624   -2.6854   -1.6281 C.ar      1 <0>        -0.0808
      5 C5          1.1121   -3.3893   -0.4227 C.ar      1 <0>        -0.1131
      6 C6          2.2075   -3.2291    0.4279 C.ar      1 <0>        -0.0978
      7 C7          3.2373   -2.3802    0.0695 C.ar      1 <0>         0.0781
      8 F1          4.3011   -2.2273    0.8881 F         1 <0>        -0.1408
      9 C8          0.0089   -4.3001   -0.0488 C.2       1 <0>         0.5054
     10 O1         -0.9767   -4.3847   -0.7571 O.2       1 <0>        -0.4642
     11 C9          0.1026   -5.1011    1.1753 C.2       1 <0>        -0.5066
     12 C10         0.2079   -6.4484    1.2524 C.2       1 <0>         0.2679
     13 C11         0.2762   -6.8494    2.6736 C.2       1 <0>         0.5126
     14 O2          0.3748   -7.9931    3.0715 O.2       1 <0>        -0.5317
     15 N1          0.2136   -5.7606    3.4614 N.am      1 <0>        -0.6091
     16 C12         0.1070   -4.5815    2.5940 C.3       1 <0>         0.2644
     17 H1          0.9603   -3.9212    2.7487 H         1 <0>         0.0706
     18 C13        -1.1769   -3.8461    2.8804 C.ar      1 <0>        -0.0364
     19 C14        -2.3102   -4.5513    3.2403 C.ar      1 <0>        -0.1167
     20 C15        -3.4903   -3.8813    3.5039 C.ar      1 <0>        -0.1045
     21 C16        -3.5389   -2.4998    3.4082 C.ar      1 <0>         0.0606
     22 C17        -2.3980   -1.7899    3.0465 C.ar      1 <0>         0.1026
     23 C18        -1.2172   -2.4673    2.7882 C.ar      1 <0>        -0.1880
     24 O3         -2.4407   -0.4340    2.9512 O.3       1 <0>        -0.3108
     25 C19        -1.2065    0.2372    2.6901 C.3       1 <0>         0.0256
     26 O4         -4.6991   -1.8392    3.6669 O.3       1 <0>        -0.4871
     27 C20         0.2517   -5.7528    4.9259 C.3       1 <0>         0.1597
     28 C21         1.6809   -5.6410    5.3906 C.2       1 <0>        -0.1606
     29 C22         2.0304   -4.6792    6.2085 C.2       1 <0>        -0.1885
     30 O5          0.2441   -7.2936    0.1968 O.3       1 <0>        -0.6499
     31 H2          5.0499   -1.3026   -2.0774 H         1 <0>         0.0732
     32 H3          3.9076    0.0619   -2.1173 H         1 <0>         0.0706
     33 H4          4.7574   -0.3435   -0.6067 H         1 <0>         0.0682
     34 H5          2.0555   -1.2923   -2.9035 H         1 <0>         0.1324
     35 H6          0.2173   -2.8052   -2.2898 H         1 <0>         0.1370
     36 H7          2.2518   -3.7701    1.3615 H         1 <0>         0.1460
     37 H8         -2.2736   -5.6281    3.3152 H         1 <0>         0.1252
     38 H9         -4.3744   -4.4346    3.7842 H         1 <0>         0.1321
     39 H10        -0.3293   -1.9185    2.5109 H         1 <0>         0.1289
     40 H11        -0.8415   -0.0446    1.7025 H         1 <0>         0.0555
     41 H12        -1.3646    1.3151    2.7251 H         1 <0>         0.0966
     42 H13        -0.4719   -0.0469    3.4437 H         1 <0>         0.0542
     43 H14        -4.8069   -1.5812    4.5926 H         1 <0>         0.3784
     44 H15        -0.3194   -4.9030    5.2997 H         1 <0>         0.0804
     45 H16        -0.1825   -6.6777    5.3056 H         1 <0>         0.0881
     46 H17         2.4171   -6.3537    5.0493 H         1 <0>         0.1104
     47 H18         3.0546   -4.5991    6.5416 H         1 <0>         0.0967
     48 H19         1.2942   -3.9664    6.5498 H         1 <0>         0.0956
@<TRIPOS>BOND
     1    1    2 1
     2    1   31 1
     3    1   32 1
     4    1   33 1
     5    2    7 ar
     6    2    3 ar
     7    3    4 ar
     8    3   34 1
     9    4    5 ar
    10    4   35 1
    11    5    6 ar
    12    5    9 1
    13    6    7 ar
    14    6   36 1
    15    7    8 1
    16    9   10 2
    17    9   11 1
    18   11   16 1
    19   11   12 2
    20   12   13 1
    21   12   30 1
    22   13   14 2
    23   13   15 am
    24   15   16 1
    25   15   27 1
    26   16   17 1
    27   16   18 1
    28   18   23 ar
    29   18   19 ar
    30   19   20 ar
    31   19   37 1
    32   20   21 ar
    33   20   38 1
    34   21   22 ar
    35   21   26 1
    36   22   23 ar
    37   22   24 1
    38   23   39 1
    39   24   25 1
    40   25   40 1
    41   25   41 1
    42   25   42 1
    43   26   43 1
    44   27   28 1
    45   27   44 1
    46   27   45 1
    47   28   29 2
    48   28   46 1
    49   29   47 1
    50   29   48 1
@<TRIPOS>MOLECULE
ZINC51652909
   51    53     0     0     0
SMALL
USER_CHARGES

@<TRIPOS>ATOM
      1 C1         -0.0184    1.5028    0.0103 C.3       1 <0>        -0.1171
      2 C2          0.0021   -0.0041    0.0020 C.ar      1 <0>        -0.0769
      3 C3          0.0057   -0.6883   -1.1999 C.ar      1 <0>        -0.1059
      4 C4          0.0240   -2.0707   -1.2115 C.ar      1 <0>        -0.1141
      5 C5          0.0391   -2.7726   -0.0217 C.ar      1 <0>        -0.1060
      6 C6          0.0360   -2.0886    1.1861 C.ar      1 <0>         0.1110
      7 C7          0.0229   -0.7002    1.1945 C.ar      1 <0>        -0.0584
      8 C8          0.0251    0.0462    2.5037 C.3       1 <0>        -0.1289
      9 N1          0.0508   -2.7983    2.3951 N.pl3     1 <0>        -0.4025
     10 C9          1.0699   -3.5997    2.8639 C.2       1 <0>        -0.0536
     11 C10         0.6723   -4.0835    4.0530 C.2       1 <0>        -0.0141
     12 N2         -0.5535   -3.6014    4.3190 N.2       1 <0>        -0.4905
     13 C11        -0.9378   -2.8226    3.3345 C.2       1 <0>         0.2091
     14 S1         -2.4713   -1.9600    3.2403 S.3       1 <0>         0.0147
     15 C12        -3.3209   -2.4059    4.7797 C.3       1 <0>        -0.1022
     16 C13        -4.6647   -1.7254    4.8271 C.2       1 <0>         0.3557
     17 O1         -4.7430   -0.4106    5.0940 O.3       1 <0>        -0.5954
     18 C14        -5.8008   -2.4435    4.5992 C.2       1 <0>        -0.4059
     19 C15        -5.7173   -3.8445    4.3148 C.1       1 <0>         0.2970
     20 N3         -5.6511   -4.9559    4.0892 N.1       1 <0>        -0.5324
     21 C16        -7.1117   -1.7797    4.6454 C.2       1 <0>         0.5941
     22 O2         -7.1826   -0.5894    4.8870 O.2       1 <0>        -0.5415
     23 N4         -8.2349   -2.4897    4.4202 N.am      1 <0>        -0.7479
     24 C17        -9.5412   -1.8282    4.4662 C.3       1 <0>         0.1475
     25 C18       -10.0864   -1.8350    5.9093 C.3       1 <0>        -0.1349
     26 C19       -11.6104   -2.0527    5.7386 C.3       1 <0>        -0.1238
     27 C20       -11.6825   -3.0569    4.5615 C.3       1 <0>        -0.1226
     28 C21       -10.5560   -2.6051    3.6093 C.3       1 <0>        -0.1321
     29 H1          1.0042    1.8801    0.0026 H         1 <0>         0.0713
     30 H2         -0.5455    1.8639   -0.8728 H         1 <0>         0.0698
     31 H3         -0.5286    1.8543    0.9071 H         1 <0>         0.0754
     32 H4         -0.0061   -0.1416   -2.1312 H         1 <0>         0.1282
     33 H5          0.0261   -2.6023   -2.1515 H         1 <0>         0.1303
     34 H6          0.0530   -3.8525   -0.0314 H         1 <0>         0.1274
     35 H7         -1.0019    0.2121    2.8291 H         1 <0>         0.0969
     36 H8          0.5541   -0.5399    3.2552 H         1 <0>         0.0635
     37 H9          0.5247    1.0062    2.3737 H         1 <0>         0.0728
     38 H10         2.0087   -3.8009    2.3695 H         1 <0>         0.1747
     39 H11         1.2410   -4.7477    4.6869 H         1 <0>         0.1722
     40 H12        -3.4592   -3.4864    4.8185 H         1 <0>         0.0937
     41 H13        -2.7212   -2.0855    5.6316 H         1 <0>         0.1025
     42 H14        -8.1784   -3.4387    4.2275 H         1 <0>         0.3872
     43 H15        -9.4537   -0.8038    4.1042 H         1 <0>         0.0854
     44 H16        -9.6458   -2.6527    6.4797 H         1 <0>         0.0677
     45 H17        -9.8897   -0.8797    6.3960 H         1 <0>         0.0687
     46 H18       -12.0425   -2.4842    6.6415 H         1 <0>         0.0625
     47 H19       -12.1076   -1.1179    5.4798 H         1 <0>         0.0655
     48 H20       -11.4996   -4.0719    4.9142 H         1 <0>         0.0635
     49 H21       -12.6505   -2.9934    4.0645 H         1 <0>         0.0620
     50 H22       -10.9616   -1.9575    2.8319 H         1 <0>         0.0687
     51 H23       -10.0765   -3.4743    3.1591 H         1 <0>         0.0675
@<TRIPOS>BOND
     1    1    2 1
     2    1   29 1
     3    1   30 1
     4    1   31 1
     5    2    7 ar
     6    2    3 ar
     7    3    4 ar
     8    3   32 1
     9    4    5 ar
    10    4   33 1
    11    5    6 ar
    12    5   34 1
    13    6    7 ar
    14    6    9 1
    15    7    8 1
    16    8   35 1
    17    8   36 1
    18    8   37 1
    19    9   13 1
    20    9   10 1
    21   10   11 2
    22   10   38 1
    23   11   12 1
    24   11   39 1
    25   12   13 2
    26   13   14 1
    27   14   15 1
    28   15   16 1
    29   15   40 1
    30   15   41 1
    31   16   17 1
    32   16   18 2
    33   18   19 1
    34   18   21 1
    35   19   20 3
    36   21   22 2
    37   21   23 am
    38   23   24 1
    39   23   42 1
    40   24   28 1
    41   24   25 1
    42   24   43 1
    43   25   26 1
    44   25   44 1
    45   25   45 1
    46   26   27 1
    47   26   46 1
    48   26   47 1
    49   27   28 1
    50   27   48 1
    51   27   49 1
    52   28   50 1
    53   28   51 1
@<TRIPOS>MOLECULE
ZINC52430536
   48    50     0     0     0
SMALL
USER_CHARGES

@<TRIPOS>ATOM
      1 C1         -1.0873    1.2528   -0.1433 C.3       1 <0>        -0.1115
      2 C2         -0.4626   -0.1165   -0.0672 C.ar      1 <0>        -0.0853
      3 C3          0.1298   -0.6684   -1.1895 C.ar      1 <0>        -0.1272
      4 C4          0.7055   -1.9248   -1.1282 C.ar      1 <0>        -0.1103
      5 C5          0.6926   -2.6359    0.0542 C.ar      1 <0>        -0.1364
      6 C6          0.0972   -2.0850    1.1898 C.ar      1 <0>         0.0265
      7 C7         -0.4776   -0.8147    1.1223 C.ar      1 <0>        -0.0904
      8 C8          0.0798   -2.8413    2.4599 C.2       1 <0>         0.1438
      9 N1         -0.1207   -2.3472    3.6594 N.2       1 <0>        -0.2740
     10 N2         -0.0695   -3.2865    4.5350 N.2       1 <0>        -0.3400
     11 C9          0.1670   -4.4384    3.9477 C.2       1 <0>         0.3774
     12 S1          0.3214   -6.0039    4.7414 S.3       1 <0>        -0.8019
     13 N3          0.2648   -4.1967    2.6072 N.pl3     1 <0>        -0.4865
     14 C10         0.5173   -5.1759    1.5473 C.3       1 <0>         0.1347
     15 C11         2.0258   -5.3739    1.3847 C.3       1 <0>        -0.1595
     16 C12         2.2856   -6.3812    0.2944 C.2       1 <0>         0.5277
     17 O1          1.3558   -6.8906   -0.2947 O.2       1 <0>        -0.5389
     18 N4          3.5511   -6.7160   -0.0262 N.am      1 <0>        -0.7244
     19 C13         3.8037   -7.6952   -1.0861 C.3       1 <0>         0.1459
     20 H1          3.0233   -8.4560   -1.0714 H         1 <0>         0.0986
     21 C14         3.8022   -6.9893   -2.4436 C.3       1 <0>        -0.1607
     22 C15         5.1644   -8.3559   -0.8564 C.3       1 <0>         0.0712
     23 H2          5.2153   -8.7766    0.1479 H         1 <0>         0.0795
     24 C16         5.4119   -9.4599   -1.9151 C.3       1 <0>        -0.1513
     25 C17         6.9639   -9.5145   -1.9269 C.3       1 <0>        -0.1553
     26 C18         7.3455   -8.0406   -1.6712 C.3       1 <0>         0.0513
     27 O2          6.2210   -7.4025   -1.0516 O.3       1 <0>        -0.3751
     28 H3         -0.3390    2.0075    0.0988 H         1 <0>         0.0692
     29 H4         -1.4638    1.4249   -1.1516 H         1 <0>         0.0637
     30 H5         -1.9109    1.3165    0.5678 H         1 <0>         0.0670
     31 H6          0.1425   -0.1159   -2.1174 H         1 <0>         0.1191
     32 H7          1.1656   -2.3502   -2.0078 H         1 <0>         0.1215
     33 H8          1.1421   -3.6169    0.1007 H         1 <0>         0.1276
     34 H9         -0.9364   -0.3810    1.9986 H         1 <0>         0.1326
     35 H10         0.0527   -6.1257    1.8119 H         1 <0>         0.1064
     36 H11         0.0953   -4.8137    0.6099 H         1 <0>         0.0932
     37 H12         2.4904   -4.4240    1.1201 H         1 <0>         0.0945
     38 H13         2.4478   -5.7361    2.3221 H         1 <0>         0.1134
     39 H14         4.2947   -6.3085    0.4449 H         1 <0>         0.4056
     40 H15         4.5827   -6.2285   -2.4583 H         1 <0>         0.0655
     41 H16         3.9902   -7.7179   -3.2322 H         1 <0>         0.0623
     42 H17         2.8328   -6.5186   -2.6072 H         1 <0>         0.0613
     43 H18         4.9877  -10.4120   -1.5963 H         1 <0>         0.0864
     44 H19         5.0217   -9.1646   -2.8891 H         1 <0>         0.0864
     45 H20         7.3356  -10.1557   -1.1276 H         1 <0>         0.0772
     46 H21         7.3330   -9.8482   -2.8967 H         1 <0>         0.0824
     47 H22         8.2086   -7.9919   -1.0072 H         1 <0>         0.0679
     48 H23         7.5764   -7.5491   -2.6163 H         1 <0>         0.0687
@<TRIPOS>BOND
     1    1    2 1
     2    1   28 1
     3    1   29 1
     4    1   30 1
     5    2    7 ar
     6    2    3 ar
     7    3    4 ar
     8    3   31 1
     9    4    5 ar
    10    4   32 1
    11    5    6 ar
    12    5   33 1
    13    6    7 ar
    14    6    8 1
    15    7   34 1
    16    8   13 1
    17    8    9 2
    18    9   10 1
    19   10   11 2
    20   11   12 1
    21   11   13 1
    22   13   14 1
    23   14   15 1
    24   14   35 1
    25   14   36 1
    26   15   16 1
    27   15   37 1
    28   15   38 1
    29   16   17 2
    30   16   18 am
    31   18   19 1
    32   18   39 1
    33   19   20 1
    34   19   21 1
    35   19   22 1
    36   21   40 1
    37   21   41 1
    38   21   42 1
    39   22   23 1
    40   22   27 1
    41   22   24 1
    42   24   25 1
    43   24   43 1
    44   24   44 1
    45   25   26 1
    46   25   45 1
    47   25   46 1
    48   26   27 1
    49   26   47 1
    50   26   48 1
@<TRIPOS>MOLECULE
ZINC09029658
   56    58     0     0     0
SMALL
USER_CHARGES
N-[1-[5-[(4-fluorophenyl)methylsulfonyl]-1,3,4-oxadiazol-2-yl]-2-methyl-propyl]-1-(p-tolyl)methanesulfonamide
@<TRIPOS>ATOM
      1 C1         -2.3158   -4.4111   -6.5370 C.3       1 <0>        -0.1205
      2 C2         -2.1760   -3.4745   -5.3647 C.ar      1 <0>        -0.0707
      3 C3         -1.1081   -3.6078   -4.4971 C.ar      1 <0>        -0.1180
      4 C4         -0.9799   -2.7486   -3.4217 C.ar      1 <0>        -0.0975
      5 C5         -1.9189   -1.7556   -3.2146 C.ar      1 <0>        -0.1066
      6 C6         -2.9894   -1.6253   -4.0795 C.ar      1 <0>        -0.0978
      7 C7         -3.1153   -2.4817   -5.1573 C.ar      1 <0>        -0.1181
      8 C8         -1.7791   -0.8189   -2.0424 C.3       1 <0>        -0.5840
      9 S1         -0.8034    0.6279   -2.5375 S.o2      1 <0>         2.6024
     10 O1         -1.5284    1.4088   -3.4777 O.2       1 <0>        -0.9345
     11 O2          0.5409    0.2466   -2.7960 O.2       1 <0>        -0.9337
     12 N1         -0.7213    1.5711   -1.1789 N.pl3     1 <0>        -1.1095
     13 C9         -0.0127    1.0858    0.0080 C.3       1 <0>         0.2518
     14 H1          0.0021   -0.0041    0.0020 H         1 <0>         0.1228
     15 C10        -0.7181    1.5718    1.2479 C.2       1 <0>         0.1975
     16 N2         -1.1627    2.7780    1.4592 N.2       1 <0>        -0.2639
     17 N3         -1.7095    2.8338    2.6225 N.2       1 <0>        -0.1685
     18 C11        -1.6323    1.6652    3.1930 C.2       1 <0>        -0.3648
     19 O3         -1.0090    0.8392    2.3360 O.3       1 <0>        -0.1681
     20 S2         -2.2401    1.2434    4.7922 S.o2      1 <0>         2.5090
     21 O4         -1.4309    0.1531    5.2117 O.2       1 <0>        -0.8889
     22 O5         -2.2385    2.4668    5.5150 O.2       1 <0>        -0.8729
     23 C12        -3.9432    0.6857    4.5115 C.3       1 <0>        -0.5395
     24 C13        -4.5672    0.2955    5.8266 C.ar      1 <0>        -0.1202
     25 C14        -4.4664   -1.0068    6.2794 C.ar      1 <0>        -0.0668
     26 C15        -5.0341   -1.3647    7.4876 C.ar      1 <0>        -0.1520
     27 C16        -5.7131   -0.4209    8.2394 C.ar      1 <0>         0.1213
     28 C17        -5.8179    0.8819    7.7823 C.ar      1 <0>        -0.1512
     29 C18        -5.2449    1.2387    6.5764 C.ar      1 <0>        -0.0657
     30 F1         -6.2725   -0.7707    9.4184 F         1 <0>        -0.1309
     31 C19         1.4227    1.6154   -0.0028 C.3       1 <0>        -0.1125
     32 H2          1.9050    1.3387   -0.9404 H         1 <0>         0.1196
     33 C20         2.1988    1.0094    1.1682 C.3       1 <0>        -0.1569
     34 C21         1.4050    3.1394    0.1312 C.3       1 <0>        -0.1564
     35 H3         -2.9015   -5.2809   -6.2393 H         1 <0>         0.0751
     36 H4         -2.8197   -3.8965   -7.3551 H         1 <0>         0.0705
     37 H5         -1.3274   -4.7334   -6.8645 H         1 <0>         0.0707
     38 H6         -0.3743   -4.3834   -4.6591 H         1 <0>         0.1310
     39 H7         -0.1458   -2.8530   -2.7437 H         1 <0>         0.1315
     40 H8         -3.7254   -0.8523   -3.9152 H         1 <0>         0.1307
     41 H9         -3.9494   -2.3774   -5.8354 H         1 <0>         0.1307
     42 H10        -1.2758   -1.3337   -1.2240 H         1 <0>         0.1402
     43 H11        -2.7675   -0.4960   -1.7154 H         1 <0>         0.1441
     44 H12        -1.1423    2.4449   -1.1689 H         1 <0>         0.4312
     45 H13        -4.5203    1.4931    4.0609 H         1 <0>         0.1583
     46 H14        -3.9382   -0.1747    3.8422 H         1 <0>         0.1553
     47 H15        -3.9403   -1.7438    5.6908 H         1 <0>         0.1454
     48 H16        -4.9517   -2.3812    7.8431 H         1 <0>         0.1468
     49 H17        -6.3469    1.6190    8.3681 H         1 <0>         0.1473
     50 H18        -5.3262    2.2549    6.2198 H         1 <0>         0.1471
     51 H19         1.7165    1.2860    2.1057 H         1 <0>         0.0499
     52 H20         2.2113   -0.0764    1.0727 H         1 <0>         0.0676
     53 H21         3.2213    1.3866    1.1604 H         1 <0>         0.0766
     54 H22         0.9228    3.4161    1.0688 H         1 <0>         0.0611
     55 H23         2.4276    3.5167    0.1235 H         1 <0>         0.0682
     56 H24         0.8521    3.5712   -0.7030 H         1 <0>         0.0661
@<TRIPOS>BOND
     1    1    2 1
     2    1   35 1
     3    1   36 1
     4    1   37 1
     5    2    7 ar
     6    2    3 ar
     7    3    4 ar
     8    3   38 1
     9    4    5 ar
    10    4   39 1
    11    5    6 ar
    12    5    8 1
    13    6    7 ar
    14    6   40 1
    15    7   41 1
    16    8    9 1
    17    8   42 1
    18    8   43 1
    19    9   10 2
    20    9   11 2
    21    9   12 1
    22   12   13 1
    23   12   44 1
    24   13   14 1
    25   13   15 1
    26   13   31 1
    27   15   19 1
    28   15   16 2
    29   16   17 1
    30   17   18 2
    31   18   19 1
    32   18   20 1
    33   20   21 2
    34   20   22 2
    35   20   23 1
    36   23   24 1
    37   23   45 1
    38   23   46 1
    39   24   29 ar
    40   24   25 ar
    41   25   26 ar
    42   25   47 1
    43   26   27 ar
    44   26   48 1
    45   27   28 ar
    46   27   30 1
    47   28   29 ar
    48   28   49 1
    49   29   50 1
    50   31   32 1
    51   31   33 1
    52   31   34 1
    53   33   51 1
    54   33   52 1
    55   33   53 1
    56   34   54 1
    57   34   55 1
    58   34   56 1
@<TRIPOS>MOLECULE
ZINC10791342
   50    51     0     0     0
SMALL
USER_CHARGES
[4-chloro-3-(trifluoromethyl)phenyl]carbamoylmethyl 3-(dimethylsulfamoyl)-4-methoxy-benzoate
@<TRIPOS>ATOM
      1 C1         -6.6994    2.3301    2.6802 C.3       1 <0>         0.0866
      2 N1         -5.8086    1.2115    2.3619 N.pl3     1 <0>        -0.9993
      3 C2         -5.4697    0.2283    3.3938 C.3       1 <0>         0.0830
      4 S1         -5.1847    1.0584    0.8356 S.o2      1 <0>         2.6987
      5 O1         -6.0700    1.7480   -0.0362 O.2       1 <0>        -0.9380
      6 O2         -4.8629   -0.3151    0.6642 O.2       1 <0>        -0.9517
      7 C3         -3.6596    1.9404    0.8053 C.ar      1 <0>        -0.7239
      8 C4         -2.4767    1.2620    0.6137 C.ar      1 <0>         0.0824
      9 C5         -1.2675    1.9627    0.5899 C.ar      1 <0>        -0.1847
     10 C6         -1.2642    3.3496    0.7661 C.ar      1 <0>         0.0326
     11 C7         -2.4517    4.0208    0.9513 C.ar      1 <0>        -0.2363
     12 C8         -3.6523    3.3200    0.9743 C.ar      1 <0>         0.2605
     13 O3         -4.8203    3.9848    1.1619 O.3       1 <0>        -0.3039
     14 C9         -4.7407    5.4018    1.3290 C.3       1 <0>         0.0183
     15 C10         0.0018    1.2402    0.3856 C.2       1 <0>         0.5189
     16 O4         -0.0026    0.0342    0.2376 O.2       1 <0>        -0.4963
     17 O5          1.1659    1.9182    0.3574 O.3       1 <0>        -0.3302
     18 C11         2.3753    1.1430    0.1460 C.3       1 <0>         0.0515
     19 C12         3.5683    2.0637    0.1449 C.2       1 <0>         0.5196
     20 O6          3.4145    3.2559    0.3063 O.2       1 <0>        -0.4902
     21 N2          4.8063    1.5623   -0.0354 N.am      1 <0>        -0.6685
     22 C13         5.9019    2.4262   -0.1469 C.ar      1 <0>         0.1535
     23 C14         5.7500    3.6680   -0.7500 C.ar      1 <0>        -0.0773
     24 C15         6.8314    4.5204   -0.8545 C.ar      1 <0>        -0.0869
     25 C16         8.0682    4.1339   -0.3682 C.ar      1 <0>        -0.0070
     26 C17         8.2234    2.8952    0.2284 C.ar      1 <0>        -0.1565
     27 C18         7.1437    2.0409    0.3401 C.ar      1 <0>        -0.0862
     28 C19         9.5715    2.4779    0.7572 C.3       1 <0>         0.5111
     29 F1          9.4789    1.1965    1.3109 F         1 <0>        -0.1739
     30 F2         10.5001    2.4679   -0.2891 F         1 <0>        -0.1672
     31 F3          9.9868    3.3820    1.7408 F         1 <0>        -0.1671
     32 Cl1         9.4271    5.2055   -0.5065 Cl        1 <0>        -0.0382
     33 H1         -7.7316    2.0396    2.4845 H         1 <0>         0.0605
     34 H2         -6.5895    2.5941    3.7320 H         1 <0>         0.0716
     35 H3         -6.4400    3.1888    2.0610 H         1 <0>         0.0868
     36 H4         -4.8013   -0.5234    2.9739 H         1 <0>         0.0862
     37 H5         -4.9753    0.7303    4.2254 H         1 <0>         0.0621
     38 H6         -6.3804   -0.2534    3.7497 H         1 <0>         0.0699
     39 H7         -2.4832    0.1901    0.4825 H         1 <0>         0.1663
     40 H8         -0.3317    3.8943    0.7524 H         1 <0>         0.1543
     41 H9         -2.4504    5.0927    1.0834 H         1 <0>         0.1506
     42 H10        -5.7423    5.8079    1.4697 H         1 <0>         0.1147
     43 H11        -4.1297    5.6309    2.2022 H         1 <0>         0.0676
     44 H12        -4.2892    5.8473    0.4426 H         1 <0>         0.0690
     45 H13         2.4821    0.4109    0.9465 H         1 <0>         0.1119
     46 H14         2.3135    0.6272   -0.8122 H         1 <0>         0.1134
     47 H15         4.9380    0.6027   -0.0880 H         1 <0>         0.4201
     48 H16         4.7861    3.9683   -1.1337 H         1 <0>         0.1547
     49 H17         6.7130    5.4877   -1.3200 H         1 <0>         0.1530
     50 H18         7.2655    1.0740    0.8055 H         1 <0>         0.1538
@<TRIPOS>BOND
     1    1    2 1
     2    1   33 1
     3    1   34 1
     4    1   35 1
     5    2    3 1
     6    2    4 1
     7    3   36 1
     8    3   37 1
     9    3   38 1
    10    4    5 2
    11    4    6 2
    12    4    7 1
    13    7   12 ar
    14    7    8 ar
    15    8    9 ar
    16    8   39 1
    17    9   10 ar
    18    9   15 1
    19   10   11 ar
    20   10   40 1
    21   11   12 ar
    22   11   41 1
    23   12   13 1
    24   13   14 1
    25   14   42 1
    26   14   43 1
    27   14   44 1
    28   15   16 2
    29   15   17 1
    30   17   18 1
    31   18   19 1
    32   18   45 1
    33   18   46 1
    34   19   20 2
    35   19   21 am
    36   21   22 1
    37   21   47 1
    38   22   27 ar
    39   22   23 ar
    40   23   24 ar
    41   23   48 1
    42   24   25 ar
    43   24   49 1
    44   25   26 ar
    45   25   32 1
    46   26   27 ar
    47   26   28 1
    48   27   50 1
    49   28   29 1
    50   28   30 1
    51   28   31 1
@<TRIPOS>MOLECULE
ZINC23345441
   60    63     0     0     0
SMALL
USER_CHARGES
[2-[[3-cyano-1-[(4-fluorophenyl)methyl]-4,5-dimethyl-pyrrol-2-yl]amino]-2-oxo-ethyl] 2-(1-phenylpyrazol-4-yl)acetate
@<TRIPOS>ATOM
      1 C1          1.6420   -3.3094    0.6835 C.3       1 <0>        -0.0879
      2 C2          0.7998   -2.1320    0.2645 C.2       1 <0>        -0.1063
      3 C3         -0.4921   -2.1601   -0.1014 C.2       1 <0>         0.0399
      4 N1         -0.9041   -0.8902   -0.4055 N.pl3     1 <0>        -0.4351
      5 C4          0.1229   -0.0154   -0.2499 C.2       1 <0>         0.3137
      6 C5          1.2324   -0.7319    0.1765 C.2       1 <0>        -0.1025
      7 C6          2.5338   -0.2117    0.4702 C.1       1 <0>         0.2904
      8 N2          3.5662    0.2010    0.7032 N.1       1 <0>        -0.4314
      9 N3          0.0706    1.3527   -0.4720 N.am      1 <0>        -0.6724
     10 C7          0.9134    1.9248   -1.3545 C.2       1 <0>         0.5214
     11 O1          1.6416    1.2327   -2.0339 O.2       1 <0>        -0.4776
     12 C8          0.9508    3.4246   -1.4972 C.3       1 <0>         0.0513
     13 O2          1.9317    3.7907   -2.5034 O.3       1 <0>        -0.3325
     14 C9          2.0892    5.1002   -2.7528 C.2       1 <0>         0.4627
     15 O3          1.4294    5.9136   -2.1503 O.2       1 <0>        -0.4963
     16 C10         3.0890    5.5559   -3.7841 C.3       1 <0>        -0.0311
     17 C11         3.0706    7.0602   -3.8713 C.2       1 <0>        -0.2244
     18 C12         3.8598    7.9380   -3.1200 C.2       1 <0>         0.0774
     19 N4          3.5626    9.1621   -3.4751 N.2       1 <0>        -0.2848
     20 N5          2.5733    9.1031   -4.4651 N.pl3     1 <0>        -0.3186
     21 C13         2.2920    7.8004   -4.6942 C.2       1 <0>         0.0772
     22 C14         1.9835   10.2001   -5.1085 C.ar      1 <0>         0.1579
     23 C15         1.0138    9.9971   -6.0812 C.ar      1 <0>        -0.1415
     24 C16         0.4314   11.0800   -6.7103 C.ar      1 <0>        -0.0922
     25 C17         0.8205   12.3651   -6.3794 C.ar      1 <0>        -0.1279
     26 C18         1.7895   12.5702   -5.4145 C.ar      1 <0>        -0.0945
     27 C19         2.3721   11.4915   -4.7785 C.ar      1 <0>        -0.1184
     28 C20        -2.2558   -0.5282   -0.8392 C.3       1 <0>         0.1384
     29 C21        -3.1341   -0.3273    0.3688 C.ar      1 <0>        -0.1283
     30 C22        -3.9388   -1.3583    0.8168 C.ar      1 <0>        -0.0676
     31 C23        -4.7410   -1.1768    1.9274 C.ar      1 <0>        -0.1499
     32 C24        -4.7465    0.0416    2.5851 C.ar      1 <0>         0.1128
     33 C25        -3.9441    1.0752    2.1323 C.ar      1 <0>        -0.1505
     34 C26        -3.1388    0.8896    1.0246 C.ar      1 <0>        -0.0718
     35 F1         -5.5339    0.2217    3.6680 F         1 <0>        -0.1343
     36 C27        -1.3545   -3.3944   -0.1617 C.3       1 <0>        -0.0907
     37 H1          1.0345   -4.2258    0.6483 H         1 <0>         0.0711
     38 H2          2.0086   -3.1517    1.7085 H         1 <0>         0.0684
     39 H3          2.4975   -3.4101   -0.0005 H         1 <0>         0.0690
     40 H4         -0.6587    1.9708    0.0721 H         1 <0>         0.4332
     41 H5         -0.0412    3.7887   -1.8026 H         1 <0>         0.1076
     42 H6          1.2271    3.8778   -0.5337 H         1 <0>         0.1091
     43 H7          4.0948    5.2177   -3.4942 H         1 <0>         0.1227
     44 H8          2.8265    5.1286   -4.7632 H         1 <0>         0.1184
     45 H9          4.5889    7.6542   -2.3756 H         1 <0>         0.1908
     46 H10         1.5733    7.4193   -5.4046 H         1 <0>         0.1780
     47 H11         0.7128    8.9935   -6.3432 H         1 <0>         0.1295
     48 H12        -0.3254   10.9229   -7.4646 H         1 <0>         0.1340
     49 H13         0.3664   13.2102   -6.8754 H         1 <0>         0.1302
     50 H14         2.0913   13.5750   -5.1582 H         1 <0>         0.1335
     51 H15         3.1288   11.6523   -4.0250 H         1 <0>         0.1383
     52 H16        -2.2164    0.4033   -1.4229 H         1 <0>         0.1038
     53 H17        -2.6690   -1.3345   -1.4630 H         1 <0>         0.1105
     54 H18        -3.9374   -2.3073    0.3012 H         1 <0>         0.1373
     55 H19        -5.3665   -1.9837    2.2797 H         1 <0>         0.1412
     56 H20        -3.9473    2.0258    2.6447 H         1 <0>         0.1408
     57 H21        -2.5125    1.6955    0.6715 H         1 <0>         0.1253
     58 H22        -2.3664   -3.1188   -0.4934 H         1 <0>         0.0657
     59 H23        -1.4081   -3.8534    0.8365 H         1 <0>         0.0832
     60 H24        -0.9185   -4.1120   -0.8723 H         1 <0>         0.0842
@<TRIPOS>BOND
     1    1    2 1
     2    1   37 1
     3    1   38 1
     4    1   39 1
     5    2    6 1
     6    2    3 2
     7    3    4 1
     8    3   36 1
     9    4    5 1
    10    4   28 1
    11    5    6 2
    12    5    9 1
    13    6    7 1
    14    7    8 3
    15    9   10 am
    16    9   40 1
    17   10   11 2
    18   10   12 1
    19   12   13 1
    20   12   41 1
    21   12   42 1
    22   13   14 1
    23   14   15 2
    24   14   16 1
    25   16   17 1
    26   16   43 1
    27   16   44 1
    28   17   21 2
    29   17   18 1
    30   18   19 2
    31   18   45 1
    32   19   20 1
    33   20   21 1
    34   20   22 1
    35   21   46 1
    36   22   27 ar
    37   22   23 ar
    38   23   24 ar
    39   23   47 1
    40   24   25 ar
    41   24   48 1
    42   25   26 ar
    43   25   49 1
    44   26   27 ar
    45   26   50 1
    46   27   51 1
    47   28   29 1
    48   28   52 1
    49   28   53 1
    50   29   34 ar
    51   29   30 ar
    52   30   31 ar
    53   30   54 1
    54   31   32 ar
    55   31   55 1
    56   32   33 ar
    57   32   35 1
    58   33   34 ar
    59   33   56 1
    60   34   57 1
    61   36   58 1
    62   36   59 1
    63   36   60 1
@<TRIPOS>MOLECULE
ZINC41082503
   64    67     0     0     0
SMALL
USER_CHARGES

@<TRIPOS>ATOM
      1 C1         -1.1023    1.9445    0.4388 C.3       1 <0>        -0.1472
      2 C2         -0.8552    0.4369    0.3555 C.3       1 <0>        -0.0867
      3 C3         -2.1762   -0.2871    0.3149 C.ar      1 <0>        -0.0373
      4 C4         -2.7850   -0.6802    1.4927 C.ar      1 <0>        -0.1565
      5 C5         -3.9969   -1.3446    1.4589 C.ar      1 <0>        -0.0429
      6 C6         -4.6026   -1.6179    0.2475 C.ar      1 <0>        -0.2168
      7 C7         -3.9940   -1.2247   -0.9353 C.ar      1 <0>         0.1377
      8 C8         -2.7806   -0.5526   -0.8983 C.ar      1 <0>        -0.1550
      9 O1         -4.5877   -1.4923   -2.1280 O.3       1 <0>        -0.3067
     10 C9         -5.8386   -2.1822   -2.0897 C.3       1 <0>         0.0627
     11 C10        -6.3490   -2.3924   -3.5166 C.3       1 <0>         0.0569
     12 O2         -5.4586   -3.2629   -4.2177 O.3       1 <0>        -0.2878
     13 C11        -5.7691   -3.5541   -5.5069 C.ar      1 <0>         0.1353
     14 C12        -6.9073   -3.0061   -6.0856 C.ar      1 <0>        -0.1746
     15 C13        -7.2281   -3.2970   -7.3921 C.ar      1 <0>        -0.0772
     16 C14        -6.4048   -4.1487   -8.1422 C.ar      1 <0>        -0.1251
     17 C15        -5.2566   -4.7007   -7.5565 C.ar      1 <0>        -0.1330
     18 C16        -4.9410   -4.3980   -6.2478 C.ar      1 <0>         0.1012
     19 O3         -3.8250   -4.9267   -5.6781 O.3       1 <0>        -0.2994
     20 C17        -3.0231   -5.7825   -6.4945 C.3       1 <0>         0.0505
     21 C18        -1.8208   -6.2771   -5.6878 C.3       1 <0>        -0.1523
     22 C19        -6.7431   -4.4610   -9.5327 C.2       1 <0>         0.0659
     23 C20        -7.3739   -3.5206  -10.3154 C.2       1 <0>        -0.2520
     24 C21        -7.5710   -2.1100   -9.8605 C.2       1 <0>         0.4654
     25 N1         -6.7463   -1.4859   -9.0612 N.2       1 <0>        -0.6605
     26 N2         -8.7232   -1.5335  -10.3777 N.pl3     1 <0>        -0.4144
     27 C22        -9.3033   -2.0075  -11.5272 C.2       1 <0>         0.4814
     28 N3         -8.8965   -3.0997  -12.1716 N.2       1 <0>        -0.5782
     29 C23        -7.8960   -3.8406  -11.6673 C.2       1 <0>         0.5414
     30 O4         -7.4247   -4.7661  -12.3087 O.2       1 <0>        -0.4696
     31 C24       -10.3608   -1.1371  -11.8275 C.2       1 <0>        -0.2549
     32 C25       -10.4400   -0.2089  -10.8488 C.2       1 <0>         0.1289
     33 O5         -9.4888   -0.4482   -9.9309 O.3       1 <0>        -0.0385
     34 C26       -11.4387    0.9184  -10.7955 C.3       1 <0>        -0.0925
     35 C27        -4.6576   -1.7715    2.7443 C.3       1 <0>        -0.1173
     36 H1         -0.1468    2.4683    0.4682 H         1 <0>         0.0599
     37 H2         -1.6677    2.2689   -0.4348 H         1 <0>         0.0564
     38 H3         -1.6684    2.1706    1.3424 H         1 <0>         0.0563
     39 H4         -0.2890    0.2109   -0.5481 H         1 <0>         0.0743
     40 H5         -0.2898    0.1126    1.2292 H         1 <0>         0.0750
     41 H6         -2.3128   -0.4681    2.4406 H         1 <0>         0.1230
     42 H7         -5.5490   -2.1376    0.2216 H         1 <0>         0.1255
     43 H8         -2.3070   -0.2412   -1.8176 H         1 <0>         0.1288
     44 H9         -5.7053   -3.1495   -1.6053 H         1 <0>         0.0764
     45 H10        -6.5623   -1.5914   -1.5283 H         1 <0>         0.0869
     46 H11        -7.3431   -2.8384   -3.4849 H         1 <0>         0.0880
     47 H12        -6.3978   -1.4322   -4.0302 H         1 <0>         0.0788
     48 H13        -7.5423   -2.3502   -5.5085 H         1 <0>         0.1421
     49 H14        -8.1137   -2.8698   -7.8390 H         1 <0>         0.1282
     50 H15        -4.6188   -5.3576   -8.1294 H         1 <0>         0.1469
     51 H16        -3.6179   -6.6358   -6.8204 H         1 <0>         0.0638
     52 H17        -2.6730   -5.2295   -7.3662 H         1 <0>         0.0635
     53 H18        -1.2260   -5.4238   -5.3619 H         1 <0>         0.0678
     54 H19        -2.1709   -6.8301   -4.8161 H         1 <0>         0.0673
     55 H20        -1.2091   -6.9299   -6.3106 H         1 <0>         0.0805
     56 H21        -6.4978   -5.4291   -9.9438 H         1 <0>         0.1637
     57 H22        -5.9137   -1.9082   -8.7975 H         1 <0>         0.3756
     58 H23       -11.0028   -1.1981  -12.6938 H         1 <0>         0.1936
     59 H24       -12.3315    0.5880  -10.2645 H         1 <0>         0.1088
     60 H25       -10.9994    1.7686  -10.2738 H         1 <0>         0.0957
     61 H26       -11.7076    1.2138  -11.8096 H         1 <0>         0.1131
     62 H27        -5.3114   -0.9747    3.0988 H         1 <0>         0.0731
     63 H28        -5.2452   -2.6727    2.5689 H         1 <0>         0.0665
     64 H29        -3.8940   -1.9760    3.4948 H         1 <0>         0.0695
@<TRIPOS>BOND
     1    1    2 1
     2    1   36 1
     3    1   37 1
     4    1   38 1
     5    2    3 1
     6    2   39 1
     7    2   40 1
     8    3    8 ar
     9    3    4 ar
    10    4    5 ar
    11    4   41 1
    12    5    6 ar
    13    5   35 1
    14    6    7 ar
    15    6   42 1
    16    7    8 ar
    17    7    9 1
    18    8   43 1
    19    9   10 1
    20   10   11 1
    21   10   44 1
    22   10   45 1
    23   11   12 1
    24   11   46 1
    25   11   47 1
    26   12   13 1
    27   13   18 ar
    28   13   14 ar
    29   14   15 ar
    30   14   48 1
    31   15   16 ar
    32   15   49 1
    33   16   17 ar
    34   16   22 1
    35   17   18 ar
    36   17   50 1
    37   18   19 1
    38   19   20 1
    39   20   21 1
    40   20   51 1
    41   20   52 1
    42   21   53 1
    43   21   54 1
    44   21   55 1
    45   22   23 2
    46   22   56 1
    47   23   29 1
    48   23   24 1
    49   24   25 2
    50   24   26 1
    51   25   57 1
    52   26   33 1
    53   26   27 1
    54   27   28 2
    55   27   31 1
    56   28   29 1
    57   29   30 2
    58   31   32 2
    59   31   58 1
    60   32   33 1
    61   32   34 1
    62   34   59 1
    63   34   60 1
    64   34   61 1
    65   35   62 1
    66   35   63 1
    67   35   64 1
@<TRIPOS>MOLECULE
ZINC58744899
   64    67     0     0     0
SMALL
USER_CHARGES

@<TRIPOS>ATOM
      1 C1          2.9990    0.6954   -0.8659 C.3       1 <0>        -0.1516
      2 C2          2.2539   -0.6237   -0.6519 C.3       1 <0>         0.0492
      3 O1          2.1577   -0.8948    0.7478 O.3       1 <0>        -0.2969
      4 C3          1.5190   -2.0388    1.1127 C.ar      1 <0>         0.1511
      5 C4          1.0037   -2.8807    0.1450 C.ar      1 <0>        -0.1812
      6 C5          0.3482   -4.0559    0.5205 C.ar      1 <0>        -0.0537
      7 C6          0.2152   -4.3770    1.8736 C.ar      1 <0>        -0.2106
      8 C7          0.7323   -3.5316    2.8374 C.ar      1 <0>         0.1508
      9 C8          1.3898   -2.3637    2.4604 C.ar      1 <0>         0.0533
     10 O2          1.9018   -1.5369    3.4096 O.3       1 <0>        -0.3094
     11 C9          1.0414   -0.5111    3.9090 C.3       1 <0>         0.0622
     12 C10         1.7868    0.3124    4.9612 C.3       1 <0>        -0.1490
     13 O3          0.6028   -3.8434    4.1548 O.3       1 <0>        -0.2961
     14 C11        -0.0787   -5.0593    4.4698 C.3       1 <0>         0.0493
     15 C12        -0.1256   -5.2391    5.9885 C.3       1 <0>        -0.1526
     16 C13        -0.2034   -4.9565   -0.5107 C.2       1 <0>         0.5692
     17 O4         -0.8343   -4.4983   -1.4437 O.2       1 <0>        -0.5241
     18 N1         -0.0078   -6.2868   -0.4182 N.am      1 <0>        -0.6064
     19 C14        -0.4740   -7.1947   -1.4771 C.3       1 <0>         0.1184
     20 C15         0.7387   -7.8683   -2.1290 C.3       1 <0>        -0.0762
     21 C16         1.6763   -8.3475   -1.0464 C.2       1 <0>         0.0847
     22 C17         1.6522   -7.9020    0.2280 C.2       1 <0>        -0.1832
     23 C18         2.7018   -8.5969    0.9433 C.ar      1 <0>        -0.1073
     24 C19         3.1430   -8.5439    2.2687 C.ar      1 <0>        -0.0205
     25 C20         4.2003   -9.3690    2.6164 C.ar      1 <0>        -0.1663
     26 C21         4.8040  -10.2133    1.7064 C.ar      1 <0>        -0.0264
     27 C22         4.3855  -10.2886    0.3724 C.ar      1 <0>        -0.1527
     28 C23         3.3122   -9.4588   -0.0033 C.ar      1 <0>         0.1630
     29 N2          2.6696   -9.2831   -1.1877 N.pl3     1 <0>        -0.5677
     30 H1          2.8815   -9.7504   -2.0109 H         1 <0>         0.4271
     31 C24         5.0371  -11.1926   -0.5919 C.2       1 <0>         0.5189
     32 O5          4.6500  -11.2344   -1.7430 O.2       1 <0>        -0.5216
     33 O6          6.0624  -11.9731   -0.1970 O.3       1 <0>        -0.3461
     34 C25         6.6468  -12.8250   -1.1843 C.3       1 <0>         0.0346
     35 C26         0.6846   -6.8713    0.7441 C.3       1 <0>         0.1750
     36 H2          3.9999    0.6204   -0.4407 H         1 <0>         0.0683
     37 H3          3.0724    0.9022   -1.9336 H         1 <0>         0.0809
     38 H4          2.4556    1.5032   -0.3758 H         1 <0>         0.0674
     39 H5          1.2531   -0.5488   -1.0771 H         1 <0>         0.0666
     40 H6          2.7973   -1.4316   -1.1420 H         1 <0>         0.0653
     41 H7          1.1075   -2.6301   -0.9003 H         1 <0>         0.1430
     42 H8         -0.2914   -5.2847    2.1664 H         1 <0>         0.1432
     43 H9          0.7361    0.1384    3.0886 H         1 <0>         0.0519
     44 H10         0.1592   -0.9648    4.3607 H         1 <0>         0.0521
     45 H11         1.1305    1.0948    5.3421 H         1 <0>         0.0738
     46 H12         2.0920   -0.3371    5.7816 H         1 <0>         0.0649
     47 H13         2.6689    0.7661    4.5095 H         1 <0>         0.0648
     48 H14        -1.0947   -5.0186    4.0772 H         1 <0>         0.0643
     49 H15         0.4509   -5.8995    4.0207 H         1 <0>         0.0650
     50 H16         0.8905   -5.2798    6.3811 H         1 <0>         0.0693
     51 H17        -0.6552   -4.3989    6.4376 H         1 <0>         0.0672
     52 H18        -0.6454   -6.1665    6.2287 H         1 <0>         0.0811
     53 H19        -1.1248   -7.9549   -1.0450 H         1 <0>         0.0825
     54 H20        -1.0232   -6.6270   -2.2282 H         1 <0>         0.1081
     55 H21         0.4068   -8.7176   -2.7263 H         1 <0>         0.0951
     56 H22         1.2548   -7.1512   -2.7674 H         1 <0>         0.0904
     57 H23         2.6797   -7.8877    2.9906 H         1 <0>         0.1384
     58 H24         4.5643   -9.3508    3.6331 H         1 <0>         0.1326
     59 H25         5.6246  -10.8347    2.0334 H         1 <0>         0.1389
     60 H26         7.0378  -12.2191   -2.0016 H         1 <0>         0.0619
     61 H27         7.4587  -13.3974   -0.7357 H         1 <0>         0.1058
     62 H28         5.8896  -13.5084   -1.5687 H         1 <0>         0.0619
     63 H29         1.2255   -6.0933    1.2828 H         1 <0>         0.1054
     64 H30        -0.0394   -7.3464    1.4061 H         1 <0>         0.0830
@<TRIPOS>BOND
     1    1    2 1
     2    1   36 1
     3    1   37 1
     4    1   38 1
     5    2    3 1
     6    2   39 1
     7    2   40 1
     8    3    4 1
     9    4    9 ar
    10    4    5 ar
    11    5    6 ar
    12    5   41 1
    13    6    7 ar
    14    6   16 1
    15    7    8 ar
    16    7   42 1
    17    8    9 ar
    18    8   13 1
    19    9   10 1
    20   10   11 1
    21   11   12 1
    22   11   43 1
    23   11   44 1
    24   12   45 1
    25   12   46 1
    26   12   47 1
    27   13   14 1
    28   14   15 1
    29   14   48 1
    30   14   49 1
    31   15   50 1
    32   15   51 1
    33   15   52 1
    34   16   17 2
    35   16   18 am
    36   18   35 1
    37   18   19 1
    38   19   20 1
    39   19   53 1
    40   19   54 1
    41   20   21 1
    42   20   55 1
    43   20   56 1
    44   21   29 1
    45   21   22 2
    46   22   23 1
    47   22   35 1
    48   23   28 ar
    49   23   24 ar
    50   24   25 ar
    51   24   57 1
    52   25   26 ar
    53   25   58 1
    54   26   27 ar
    55   26   59 1
    56   27   28 ar
    57   27   31 1
    58   28   29 1
    59   29   30 1
    60   31   32 2
    61   31   33 1
    62   33   34 1
    63   34   60 1
    64   34   61 1
    65   34   62 1
    66   35   63 1
    67   35   64 1
@<TRIPOS>MOLECULE
ZINC08754077
   57    58     0     0     0
SMALL
USER_CHARGES
3-[2,4-dimethyl-3-(methyl-methylsulfonyl-amino)-phenyl]sulfonylamino-N-(p-tolyl)propanamide
@<TRIPOS>ATOM
      1 C1         -4.0681   -0.3071    2.5443 C.3       1 <0>        -0.1150
      2 C2         -2.6231   -0.6277    2.2609 C.ar      1 <0>        -0.0990
      3 C3         -2.2830   -1.8483    1.7072 C.ar      1 <0>        -0.1014
      4 C4         -0.9597   -2.1452    1.4462 C.ar      1 <0>        -0.1401
      5 C5          0.0298   -1.2161    1.7400 C.ar      1 <0>         0.1365
      6 C6         -0.3146    0.0068    2.3008 C.ar      1 <0>        -0.1153
      7 C7         -1.6402    0.2996    2.5545 C.ar      1 <0>        -0.1016
      8 N1          1.3715   -1.5137    1.4768 N.am      1 <0>        -0.6736
      9 C8          2.2171   -0.5350    1.0979 C.2       1 <0>         0.5170
     10 O1          1.7974    0.5853    0.8981 O.2       1 <0>        -0.5147
     11 C9          3.6839   -0.8326    0.9226 C.3       1 <0>        -0.1487
     12 C10         4.4148    0.4407    0.4919 C.3       1 <0>         0.1308
     13 N2          5.8407    0.1514    0.3214 N.pl3     1 <0>        -1.1208
     14 S1          6.8038    1.2022   -0.5216 S.o2      1 <0>         2.6971
     15 O2          8.1216    0.6727   -0.4738 O.2       1 <0>        -0.9462
     16 O3          6.1354    1.4725   -1.7460 O.2       1 <0>        -0.9527
     17 C11         6.8364    2.7161    0.3793 C.ar      1 <0>        -0.6812
     18 C12         6.2857    3.8593   -0.1710 C.ar      1 <0>        -0.0006
     19 C13         6.3087    5.0492    0.5327 C.ar      1 <0>        -0.1393
     20 C14         6.8821    5.0999    1.7883 C.ar      1 <0>        -0.0210
     21 C15         7.4360    3.9538    2.3439 C.ar      1 <0>         0.1080
     22 C16         7.4065    2.7585    1.6362 C.ar      1 <0>         0.0509
     23 C17         8.0011    1.5111    2.2373 C.3       1 <0>        -0.1525
     24 N3          8.0170    4.0016    3.6131 N.pl3     1 <0>        -0.9525
     25 C18         7.1770    3.8886    4.8080 C.3       1 <0>         0.0899
     26 S2          9.6555    4.1860    3.7673 S.o2      1 <0>         2.5943
     27 O4          9.9907    3.4747    4.9509 O.2       1 <0>        -0.9441
     28 O5         10.1849    3.7897    2.5095 O.2       1 <0>        -0.9358
     29 C19         9.9029    5.9657    4.0165 C.3       1 <0>        -0.6790
     30 C20         6.9072    6.3975    2.5544 C.3       1 <0>        -0.1336
     31 H1         -4.3206   -0.6302    3.5543 H         1 <0>         0.0705
     32 H2         -4.2257    0.7679    2.4566 H         1 <0>         0.0666
     33 H3         -4.7031   -0.8271    1.8271 H         1 <0>         0.0665
     34 H4         -3.0530   -2.5705    1.4790 H         1 <0>         0.1266
     35 H5         -0.6947   -3.0987    1.0138 H         1 <0>         0.1258
     36 H6          0.4531    0.7295    2.5348 H         1 <0>         0.1331
     37 H7         -1.9091    1.2521    2.9869 H         1 <0>         0.1256
     38 H8          1.6920   -2.4252    1.5631 H         1 <0>         0.4124
     39 H9          4.0980   -1.1877    1.8663 H         1 <0>         0.1082
     40 H10         3.8102   -1.6000    0.1588 H         1 <0>         0.1096
     41 H11         4.0007    0.7957   -0.4518 H         1 <0>         0.0930
     42 H12         4.2885    1.2081    1.2556 H         1 <0>         0.0770
     43 H13         6.2208   -0.6557    0.7024 H         1 <0>         0.4198
     44 H14         5.8364    3.8223   -1.1524 H         1 <0>         0.1500
     45 H15         5.8775    5.9400    0.1003 H         1 <0>         0.1406
     46 H16         9.0649    1.4666    2.0037 H         1 <0>         0.1080
     47 H17         7.8672    1.5295    3.3189 H         1 <0>         0.0849
     48 H18         7.5015    0.6349    1.8242 H         1 <0>         0.0701
     49 H19         7.0849    2.8396    5.0896 H         1 <0>         0.0677
     50 H20         7.6327    4.4459    5.6265 H         1 <0>         0.0766
     51 H21         6.1884    4.2963    4.5970 H         1 <0>         0.0776
     52 H22         9.3185    6.2970    4.8748 H         1 <0>         0.1307
     53 H23        10.9593    6.1637    4.1980 H         1 <0>         0.1346
     54 H24         9.5797    6.5056    3.1265 H         1 <0>         0.1327
     55 H25         6.0088    6.4753    3.1667 H         1 <0>         0.0869
     56 H26         7.7878    6.4235    3.1962 H         1 <0>         0.0687
     57 H27         6.9431    7.2321    1.8542 H         1 <0>         0.0805
@<TRIPOS>BOND
     1    1    2 1
     2    1   31 1
     3    1   32 1
     4    1   33 1
     5    2    7 ar
     6    2    3 ar
     7    3    4 ar
     8    3   34 1
     9    4    5 ar
    10    4   35 1
    11    5    6 ar
    12    5    8 1
    13    6    7 ar
    14    6   36 1
    15    7   37 1
    16    8    9 am
    17    8   38 1
    18    9   10 2
    19    9   11 1
    20   11   12 1
    21   11   39 1
    22   11   40 1
    23   12   13 1
    24   12   41 1
    25   12   42 1
    26   13   14 1
    27   13   43 1
    28   14   15 2
    29   14   16 2
    30   14   17 1
    31   17   22 ar
    32   17   18 ar
    33   18   19 ar
    34   18   44 1
    35   19   20 ar
    36   19   45 1
    37   20   21 ar
    38   20   30 1
    39   21   22 ar
    40   21   24 1
    41   22   23 1
    42   23   46 1
    43   23   47 1
    44   23   48 1
    45   24   25 1
    46   24   26 1
    47   25   49 1
    48   25   50 1
    49   25   51 1
    50   26   27 2
    51   26   28 2
    52   26   29 1
    53   29   52 1
    54   29   53 1
    55   29   54 1
    56   30   55 1
    57   30   56 1
    58   30   57 1
@<TRIPOS>MOLECULE
ZINC14653446
   50    51     0     0     0
SMALL
USER_CHARGES
methyl 2-[(2R)-1-[(5-bromo-2-propoxy-benzoyl)carbamothioyl]-3-oxo-piperazin-2-yl]acetate
@<TRIPOS>ATOM
      1 C1          0.5316   -9.0400    1.3360 C.3       1 <0>        -0.1498
      2 C2          0.1188   -7.5680    1.2763 C.3       1 <0>        -0.1227
      3 C3         -0.4991   -7.1569    2.6142 C.3       1 <0>         0.0503
      4 O1         -0.8847   -5.7821    2.5585 O.3       1 <0>        -0.2729
      5 C4         -1.4534   -5.2562    3.6723 C.ar      1 <0>         0.2108
      6 C5         -1.6339   -6.0433    4.8000 C.ar      1 <0>        -0.2116
      7 C6         -2.2180   -5.5088    5.9310 C.ar      1 <0>        -0.0183
      8 C7         -2.6231   -4.1832    5.9513 C.ar      1 <0>        -0.1408
      9 C8         -2.4465   -3.3851    4.8412 C.ar      1 <0>        -0.0169
     10 C9         -1.8566   -3.9139    3.6900 C.ar      1 <0>        -0.1651
     11 C10        -1.6650   -3.0663    2.4987 C.2       1 <0>         0.5404
     12 O2         -1.1514   -3.5298    1.4992 O.2       1 <0>        -0.3843
     13 N1         -2.0592   -1.7776    2.5181 N.am      1 <0>        -0.6124
     14 C11        -1.8841   -1.0029    1.4292 C.2       1 <0>         0.5525
     15 S1         -1.0413   -1.6143    0.0703 S.2       1 <0>        -0.5181
     16 N2         -2.3724    0.2531    1.4103 N.pl3     1 <0>        -0.5735
     17 C12        -2.2392    1.1092    0.2194 C.3       1 <0>         0.0836
     18 C13        -1.4130    2.3378    0.6045 C.3       1 <0>         0.0933
     19 N3         -1.8878    2.9074    1.8581 N.am      1 <0>        -0.7089
     20 C14        -2.5894    2.2400    2.7753 C.2       1 <0>         0.5236
     21 O3         -2.8612    2.8000    3.8162 O.2       1 <0>        -0.5270
     22 C15        -3.0596    0.8246    2.5780 C.3       1 <0>         0.1268
     23 H1         -2.8268    0.2356    3.4651 H         1 <0>         0.1226
     24 C16        -4.5707    0.8153    2.3386 C.3       1 <0>        -0.1255
     25 C17        -5.0648   -0.6079    2.3024 C.2       1 <0>         0.4680
     26 O4         -4.2773   -1.5225    2.3613 O.2       1 <0>        -0.5094
     27 O5         -6.3800   -0.8596    2.2102 O.3       1 <0>        -0.3492
     28 C18        -6.7843   -2.2540    2.1864 C.3       1 <0>         0.0365
     29 Br1        -3.4209   -3.4664    7.5088 Br        1 <0>        -0.0393
     30 H2          0.9718   -9.3329    0.3828 H         1 <0>         0.0665
     31 H3          1.2626   -9.1804    2.1322 H         1 <0>         0.0573
     32 H4         -0.3456   -9.6556    1.5354 H         1 <0>         0.0570
     33 H5         -0.6123   -7.4276    0.4800 H         1 <0>         0.0769
     34 H6          0.9960   -6.9524    1.0768 H         1 <0>         0.0775
     35 H7          0.2319   -7.2973    3.4105 H         1 <0>         0.0667
     36 H8         -1.3763   -7.7725    2.8137 H         1 <0>         0.0661
     37 H9         -1.3213   -7.0770    4.7918 H         1 <0>         0.1476
     38 H10        -2.3597   -6.1270    6.8051 H         1 <0>         0.1435
     39 H11        -2.7639   -2.3530    4.8611 H         1 <0>         0.1331
     40 H12        -2.4690   -1.4077    3.3157 H         1 <0>         0.4045
     41 H13        -3.2263    1.4217   -0.1212 H         1 <0>         0.0912
     42 H14        -1.7332    0.5598   -0.5745 H         1 <0>         0.1488
     43 H15        -1.4947    3.0865   -0.1835 H         1 <0>         0.1047
     44 H16        -0.3685    2.0466    0.7156 H         1 <0>         0.0830
     45 H17        -1.6788    3.8372    2.0387 H         1 <0>         0.4101
     46 H18        -4.7910    1.3007    1.3879 H         1 <0>         0.1249
     47 H19        -5.0696    1.3527    3.1451 H         1 <0>         0.1382
     48 H20        -6.3304   -2.7493    1.3281 H         1 <0>         0.0665
     49 H21        -6.4561   -2.7431    3.1036 H         1 <0>         0.0669
     50 H22        -7.8698   -2.3163    2.1098 H         1 <0>         0.1061
@<TRIPOS>BOND
     1    1    2 1
     2    1   30 1
     3    1   31 1
     4    1   32 1
     5    2    3 1
     6    2   33 1
     7    2   34 1
     8    3    4 1
     9    3   35 1
    10    3   36 1
    11    4    5 1
    12    5   10 ar
    13    5    6 ar
    14    6    7 ar
    15    6   37 1
    16    7    8 ar
    17    7   38 1
    18    8    9 ar
    19    8   29 1
    20    9   10 ar
    21    9   39 1
    22   10   11 1
    23   11   12 2
    24   11   13 am
    25   13   14 1
    26   13   40 1
    27   14   15 2
    28   14   16 1
    29   16   22 1
    30   16   17 1
    31   17   18 1
    32   17   41 1
    33   17   42 1
    34   18   19 1
    35   18   43 1
    36   18   44 1
    37   19   20 am
    38   19   45 1
    39   20   21 2
    40   20   22 1
    41   22   23 1
    42   22   24 1
    43   24   25 1
    44   24   46 1
    45   24   47 1
    46   25   26 2
    47   25   27 1
    48   27   28 1
    49   28   48 1
    50   28   49 1
    51   28   50 1
@<TRIPOS>MOLECULE
ZINC22108276
   60    63     0     0     0
SMALL
USER_CHARGES
(1S)-2-[[3-methoxy-4-[[1-(p-tolyl)tetrazol-5-yl]methoxy]phenyl]methylamino]-1-phenyl-ethanol
@<TRIPOS>ATOM
      1 C1         -2.6921   -1.2364    6.5194 C.3       1 <0>        -0.1239
      2 C2         -3.1387   -1.2731    5.0805 C.ar      1 <0>        -0.0623
      3 C3         -2.9374   -0.1730    4.2673 C.ar      1 <0>        -0.1017
      4 C4         -3.3461   -0.2036    2.9482 C.ar      1 <0>        -0.1024
      5 C5         -3.9595   -1.3401    2.4392 C.ar      1 <0>         0.1043
      6 C6         -4.1655   -2.4408    3.2596 C.ar      1 <0>        -0.0842
      7 C7         -3.7495   -2.4065    4.5763 C.ar      1 <0>        -0.1055
      8 N1         -4.3756   -1.3740    1.1001 N.pl3     1 <0>        -0.3139
      9 C8         -3.7062   -0.9131    0.0213 C.2       1 <0>         0.2483
     10 N2         -4.4504   -1.1490   -1.0273 N.2       1 <0>        -0.3010
     11 N3         -5.5469   -1.7231   -0.6846 N.2       1 <0>        -0.0318
     12 N4         -5.5802   -1.8927    0.5933 N.2       1 <0>        -0.0651
     13 C9         -2.3504   -0.2551    0.0251 C.3       1 <0>         0.1361
     14 O1         -2.5102    1.1648    0.0428 O.3       1 <0>        -0.2954
     15 C10        -1.3751    1.9138    0.0483 C.ar      1 <0>         0.0965
     16 C11        -0.1351    1.2954    0.0369 C.ar      1 <0>        -0.1682
     17 C12         1.0178    2.0583    0.0373 C.ar      1 <0>        -0.1094
     18 C13         0.9371    3.4384    0.0539 C.ar      1 <0>        -0.0696
     19 C14        -0.2968    4.0616    0.0701 C.ar      1 <0>        -0.1473
     20 C15        -1.4562    3.3028    0.0703 C.ar      1 <0>         0.1086
     21 O2         -2.6708    3.9143    0.0862 O.3       1 <0>        -0.3061
     22 C16        -2.6776    5.3432    0.1023 C.3       1 <0>         0.0222
     23 C17         2.1970    4.2652    0.0537 C.3       1 <0>         0.0903
     24 N5          2.5957    4.5498   -1.3312 N.3       1 <0>        -0.6551
     25 C18         3.8231    5.3560   -1.3706 C.3       1 <0>         0.0615
     26 C19         4.2060    5.6314   -2.8261 C.3       1 <0>         0.1651
     27 H1          4.2540    4.7045   -3.4164 H         1 <0>         0.0592
     28 C20         5.5288    6.3520   -2.8699 C.ar      1 <0>        -0.1288
     29 C21         5.5817    7.7141   -2.6399 C.ar      1 <0>        -0.0971
     30 C22         6.7957    8.3744   -2.6758 C.ar      1 <0>        -0.1224
     31 C23         7.9555    7.6742   -2.9505 C.ar      1 <0>        -0.1165
     32 C24         7.9018    6.3130   -3.1856 C.ar      1 <0>        -0.1219
     33 C25         6.6885    5.6520   -3.1455 C.ar      1 <0>        -0.1112
     34 O3          3.2011    6.4427   -3.4376 O.3       1 <0>        -0.5772
     35 H2         -2.2318   -0.2610    6.7357 H         1 <0>         0.0714
     36 H3         -1.9574   -2.0358    6.6958 H         1 <0>         0.0777
     37 H4         -3.5612   -1.3856    7.1770 H         1 <0>         0.0779
     38 H5         -2.4597    0.7108    4.6637 H         1 <0>         0.1392
     39 H6         -3.1889    0.6561    2.3136 H         1 <0>         0.1399
     40 H7         -4.6468   -3.3246    2.8676 H         1 <0>         0.1383
     41 H8         -3.9054   -3.2642    5.2138 H         1 <0>         0.1396
     42 H9         -1.7914   -0.5724    0.9178 H         1 <0>         0.0958
     43 H10        -1.7969   -0.5506   -0.8784 H         1 <0>         0.1139
     44 H11        -0.0693    0.2175    0.0233 H         1 <0>         0.1358
     45 H12         1.9836    1.5752    0.0243 H         1 <0>         0.1270
     46 H13        -0.3571    5.1398    0.0823 H         1 <0>         0.1383
     47 H14        -3.7164    5.7048    0.1141 H         1 <0>         0.1029
     48 H15        -2.1675    5.7224   -0.7955 H         1 <0>         0.0598
     49 H16        -2.1541    5.7022    1.0007 H         1 <0>         0.0560
     50 H17         2.0148    5.2112    0.5846 H         1 <0>         0.0814
     51 H18         3.0003    3.7096    0.5597 H         1 <0>         0.0425
     52 H19         2.7779    3.6038   -1.8621 H         1 <0>         0.3389
     53 H20         3.6522    6.3097   -0.8497 H         1 <0>         0.0819
     54 H21         4.6378    4.8081   -0.8745 H         1 <0>         0.0470
     55 H22         4.6751    8.2618   -2.4290 H         1 <0>         0.1271
     56 H23         6.8376    9.4378   -2.4918 H         1 <0>         0.1231
     57 H24         8.9036    8.1905   -2.9811 H         1 <0>         0.1224
     58 H25         8.8080    5.7660   -3.4002 H         1 <0>         0.1230
     59 H26         6.6466    4.5885   -3.3291 H         1 <0>         0.1210
     60 H27         3.3040    6.7456   -4.4900 H         1 <0>         0.4041
@<TRIPOS>BOND
     1    1    2 1
     2    1   35 1
     3    1   36 1
     4    1   37 1
     5    2    7 ar
     6    2    3 ar
     7    3    4 ar
     8    3   38 1
     9    4    5 ar
    10    4   39 1
    11    5    6 ar
    12    5    8 1
    13    6    7 ar
    14    6   40 1
    15    7   41 1
    16    8   12 1
    17    8    9 1
    18    9   10 2
    19    9   13 1
    20   10   11 1
    21   11   12 2
    22   13   14 1
    23   13   42 1
    24   13   43 1
    25   14   15 1
    26   15   20 ar
    27   15   16 ar
    28   16   17 ar
    29   16   44 1
    30   17   18 ar
    31   17   45 1
    32   18   19 ar
    33   18   23 1
    34   19   20 ar
    35   19   46 1
    36   20   21 1
    37   21   22 1
    38   22   47 1
    39   22   48 1
    40   22   49 1
    41   23   24 1
    42   23   50 1
    43   23   51 1
    44   24   25 1
    45   24   52 1
    46   25   26 1
    47   25   53 1
    48   25   54 1
    49   26   27 1
    50   26   28 1
    51   26   34 1
    52   28   33 ar
    53   28   29 ar
    54   29   30 ar
    55   29   55 1
    56   30   31 ar
    57   30   56 1
    58   31   32 ar
    59   31   57 1
    60   32   33 ar
    61   32   58 1
    62   33   59 1
    63   34   60 1
@<TRIPOS>MOLECULE
ZINC35964510
   57    60     0     0     0
SMALL
USER_CHARGES

@<TRIPOS>ATOM
      1 C1         -0.0157    1.3058    0.0092 C.2       1 <0>        -0.1682
      2 C2          0.0021   -0.0041    0.0020 C.2       1 <0>        -0.1762
      3 C3          1.3172   -0.7397   -0.0145 C.3       1 <0>         0.1315
      4 N1          1.3674   -1.6756    1.1115 N.am      1 <0>        -0.5213
      5 C4          1.8723   -1.2296    2.2995 C.2       1 <0>         0.1793
      6 C5          1.9464   -2.0393    3.3753 C.2       1 <0>        -0.2755
      7 C6          1.4499   -3.4626    3.2214 C.3       1 <0>         0.2575
      8 H1          0.6621   -3.6252    3.9570 H         1 <0>         0.0946
      9 N2          0.9240   -3.8461    1.9004 N.am      1 <0>        -0.7106
     10 C7          0.9106   -2.9202    0.9211 C.2       1 <0>         0.7114
     11 O1          0.4745   -3.2260   -0.1716 O.2       1 <0>        -0.5546
     12 C8          2.5895   -4.3909    3.5544 C.ar      1 <0>        -0.1181
     13 C9          3.5723   -4.6425    2.6153 C.ar      1 <0>        -0.0671
     14 C10         4.6180   -5.4932    2.9196 C.ar      1 <0>        -0.1555
     15 C11         4.6812   -6.0935    4.1657 C.ar      1 <0>         0.1051
     16 C12         3.6963   -5.8407    5.1055 C.ar      1 <0>        -0.1527
     17 C13         2.6543   -4.9856    4.8007 C.ar      1 <0>        -0.0555
     18 F1          5.7028   -6.9257    4.4642 F         1 <0>        -0.1391
     19 C14         2.5012   -1.3481    4.4719 C.2       1 <0>         0.5875
     20 O2          2.6846   -1.8368    5.5718 O.2       1 <0>        -0.5191
     21 N3          2.8019   -0.0784    4.1443 N.am      1 <0>        -0.6057
     22 C15         2.4283    0.1078    2.7343 C.3       1 <0>         0.1451
     23 C16         3.3913    0.9307    5.0277 C.3       1 <0>         0.1261
     24 C17         4.8939    0.8664    4.9318 C.2       1 <0>         0.4912
     25 O3          5.4206    0.0572    4.1978 O.2       1 <0>        -0.5219
     26 N4          5.6524    1.7080    5.6617 N.am      1 <0>        -0.7306
     27 C18         7.1131    1.6454    5.5685 C.3       1 <0>         0.1291
     28 C19         7.7286    2.6993    6.4911 C.3       1 <0>        -0.0797
     29 C20         9.2312    2.6349    6.3952 C.ar      1 <0>         0.1283
     30 C21         9.9450    3.7755    6.0786 C.ar      1 <0>        -0.1675
     31 C22        11.3269    3.7055    5.9929 C.ar      1 <0>        -0.0725
     32 C23        11.9419    2.4855    6.2299 C.ar      1 <0>        -0.1748
     33 C24        11.1625    1.3878    6.5415 C.ar      1 <0>         0.1051
     34 N5          9.8501    1.4925    6.6196 N.ar      1 <0>        -0.4798
     35 H2          0.9122    1.8585    0.0033 H         1 <0>         0.1010
     36 H3         -0.9582    1.8330    0.0166 H         1 <0>         0.1058
     37 H4         -0.9258   -0.5567    0.0079 H         1 <0>         0.1165
     38 H5          1.4134   -1.2911   -0.9498 H         1 <0>         0.1131
     39 H6          2.1349   -0.0241    0.0711 H         1 <0>         0.0946
     40 H7          0.5916   -4.7431    1.7398 H         1 <0>         0.4358
     41 H8          3.5226   -4.1744    1.6433 H         1 <0>         0.1221
     42 H9          5.3855   -5.6899    2.1857 H         1 <0>         0.1346
     43 H10         3.7444   -6.3087    6.0777 H         1 <0>         0.1374
     44 H11         1.8884   -4.7847    5.5351 H         1 <0>         0.1363
     45 H12         3.3054    0.3649    2.1404 H         1 <0>         0.1117
     46 H13         1.6671    0.8826    2.6429 H         1 <0>         0.1136
     47 H14         3.0501    1.9212    4.7264 H         1 <0>         0.1161
     48 H15         3.0842    0.7377    6.0556 H         1 <0>         0.1219
     49 H16         5.2312    2.3552    6.2488 H         1 <0>         0.4017
     50 H17         7.4543    0.6550    5.8697 H         1 <0>         0.0812
     51 H18         7.4202    1.8384    4.5406 H         1 <0>         0.0663
     52 H19         7.3874    3.6898    6.1899 H         1 <0>         0.0868
     53 H20         7.4216    2.5063    7.5190 H         1 <0>         0.0914
     54 H21         9.4327    4.7093    5.8999 H         1 <0>         0.1356
     55 H22        11.9105    4.5803    5.7470 H         1 <0>         0.1362
     56 H23        13.0165    2.3943    6.1714 H         1 <0>         0.1367
     57 H24        11.6338    0.4340    6.7275 H         1 <0>         0.1581
@<TRIPOS>BOND
     1    1    2 2
     2    1   35 1
     3    1   36 1
     4    2    3 1
     5    2   37 1
     6    3    4 1
     7    3   38 1
     8    3   39 1
     9    4   10 am
    10    4    5 1
    11    5   22 1
    12    5    6 2
    13    6    7 1
    14    6   19 1
    15    7    8 1
    16    7    9 1
    17    7   12 1
    18    9   10 am
    19    9   40 1
    20   10   11 2
    21   12   17 ar
    22   12   13 ar
    23   13   14 ar
    24   13   41 1
    25   14   15 ar
    26   14   42 1
    27   15   16 ar
    28   15   18 1
    29   16   17 ar
    30   16   43 1
    31   17   44 1
    32   19   20 2
    33   19   21 am
    34   21   22 1
    35   21   23 1
    36   22   45 1
    37   22   46 1
    38   23   24 1
    39   23   47 1
    40   23   48 1
    41   24   25 2
    42   24   26 am
    43   26   27 1
    44   26   49 1
    45   27   28 1
    46   27   50 1
    47   27   51 1
    48   28   29 1
    49   28   52 1
    50   28   53 1
    51   29   34 ar
    52   29   30 ar
    53   30   31 ar
    54   30   54 1
    55   31   32 ar
    56   31   55 1
    57   32   33 ar
    58   32   56 1
    59   33   34 ar
    60   33   57 1
@<TRIPOS>MOLECULE
ZINC58725169
   67    69     0     0     0
SMALL
USER_CHARGES

@<TRIPOS>ATOM
      1 C1          1.9776    3.1756    1.0490 C.3       1 <0>        -0.1647
      2 C2          1.1736    2.0889    0.3324 C.3       1 <0>         0.1347
      3 C3         -0.2370    2.6056    0.0427 C.3       1 <0>        -0.1616
      4 N1          1.8354    1.7428   -0.9279 N.am      1 <0>        -0.7274
      5 C4          2.8300    0.8333   -0.9393 C.2       1 <0>         0.5174
      6 O1          3.1771    0.3014    0.0939 O.2       1 <0>        -0.5320
      7 C5          3.5108    0.4774   -2.2358 C.3       1 <0>        -0.1548
      8 C6          4.5941   -0.5704   -1.9721 C.3       1 <0>         0.1365
      9 N2          5.2559   -0.9164   -3.2324 N.am      1 <0>        -0.7273
     10 C7          6.2504   -1.8259   -3.2438 C.2       1 <0>         0.5236
     11 O2          6.5975   -2.3579   -2.2106 O.2       1 <0>        -0.5214
     12 C8          6.9312   -2.1819   -4.5403 C.3       1 <0>        -0.1171
     13 H1          6.5856   -1.5148   -5.3300 H         1 <0>         0.1115
     14 C9          6.6029   -3.6329   -4.9123 C.3       1 <0>        -0.1119
     15 C10         6.9270   -4.5253   -3.7117 C.3       1 <0>        -0.1354
     16 C11         8.3013   -4.2084   -3.1957 C.2       1 <0>         0.5389
     17 O3          8.8443   -5.0180   -2.4739 O.2       1 <0>        -0.5377
     18 N3          8.9568   -3.0847   -3.4889 N.am      1 <0>        -0.5473
     19 C12         8.4457   -2.0448   -4.3790 C.3       1 <0>         0.2111
     20 H2          8.9220   -2.1404   -5.3548 H         1 <0>         0.0941
     21 C13         8.7647   -0.6886   -3.8045 C.ar      1 <0>        -0.1540
     22 C14         9.1215    0.3501   -4.6444 C.ar      1 <0>        -0.0628
     23 C15         9.4148    1.5942   -4.1203 C.ar      1 <0>        -0.1567
     24 C16         9.3508    1.8008   -2.7499 C.ar      1 <0>         0.1377
     25 C17         8.9921    0.7571   -1.9094 C.ar      1 <0>        -0.2082
     26 C18         8.6947   -0.4837   -2.4390 C.ar      1 <0>        -0.0451
     27 O4          9.6393    3.0236   -2.2318 O.3       1 <0>        -0.3174
     28 C19         9.5527    3.1636   -0.8123 C.3       1 <0>         0.0267
     29 C20        10.2153   -2.8873   -2.9055 C.ar      1 <0>         0.1143
     30 C21        10.3438   -2.8619   -1.5233 C.ar      1 <0>        -0.0581
     31 C22        11.5845   -2.6678   -0.9489 C.ar      1 <0>        -0.1414
     32 C23        12.7022   -2.4978   -1.7527 C.ar      1 <0>         0.1250
     33 C24        12.5745   -2.5227   -3.1338 C.ar      1 <0>        -0.1973
     34 C25        11.3353   -2.7228   -3.7094 C.ar      1 <0>        -0.0821
     35 O5         13.9235   -2.3062   -1.1866 O.3       1 <0>        -0.3176
     36 C26        15.0309   -2.1382   -2.0741 C.3       1 <0>         0.0272
     37 H3          2.9826    2.8076    1.2555 H         1 <0>         0.0601
     38 H4          2.0378    4.0605    0.4153 H         1 <0>         0.0567
     39 H5          1.4852    3.4331    1.9868 H         1 <0>         0.0672
     40 H6          1.1135    1.2040    0.9661 H         1 <0>         0.0889
     41 H7         -0.1769    3.4904   -0.5910 H         1 <0>         0.0614
     42 H8         -0.8098    1.8313   -0.4679 H         1 <0>         0.0621
     43 H9         -0.7294    2.8630    0.9804 H         1 <0>         0.0744
     44 H10         1.5578    2.1683   -1.7543 H         1 <0>         0.4004
     45 H11         2.7765    0.0734   -2.9327 H         1 <0>         0.1014
     46 H12         3.9657    1.3704   -2.6644 H         1 <0>         0.1006
     47 H13         5.3283   -0.1664   -1.2751 H         1 <0>         0.0760
     48 H14         4.1392   -1.4634   -1.5434 H         1 <0>         0.0777
     49 H15         4.9783   -0.4910   -4.0588 H         1 <0>         0.3996
     50 H16         5.5444   -3.7182   -5.1578 H         1 <0>         0.0859
     51 H17         7.2045   -3.9372   -5.7688 H         1 <0>         0.0877
     52 H18         6.1951   -4.3512   -2.9230 H         1 <0>         0.1118
     53 H19         6.8870   -5.5710   -4.0165 H         1 <0>         0.1016
     54 H20         9.1712    0.1887   -5.7112 H         1 <0>         0.1303
     55 H21         9.6941    2.4050   -4.7767 H         1 <0>         0.1310
     56 H22         8.9416    0.9154   -0.8422 H         1 <0>         0.1258
     57 H23         8.4111   -1.2954   -1.7854 H         1 <0>         0.1404
     58 H24         8.5370    2.9397   -0.4864 H         1 <0>         0.0555
     59 H25        10.2478    2.4722   -0.3359 H         1 <0>         0.0569
     60 H26         9.8073    4.1856   -0.5318 H         1 <0>         0.1013
     61 H27         9.4735   -2.9935   -0.8974 H         1 <0>         0.1294
     62 H28        11.6845   -2.6479    0.1262 H         1 <0>         0.1321
     63 H29        13.4450   -2.3896   -3.7590 H         1 <0>         0.1299
     64 H30        11.2368   -2.7470   -4.7846 H         1 <0>         0.1239
     65 H31        15.1336   -3.0254   -2.6989 H         1 <0>         0.0556
     66 H32        14.8610   -1.2665   -2.7060 H         1 <0>         0.0549
     67 H33        15.9426   -1.9946   -1.4943 H         1 <0>         0.1000
@<TRIPOS>BOND
     1    1    2 1
     2    1   37 1
     3    1   38 1
     4    1   39 1
     5    2    3 1
     6    2    4 1
     7    2   40 1
     8    3   41 1
     9    3   42 1
    10    3   43 1
    11    4    5 am
    12    4   44 1
    13    5    6 2
    14    5    7 1
    15    7    8 1
    16    7   45 1
    17    7   46 1
    18    8    9 1
    19    8   47 1
    20    8   48 1
    21    9   10 am
    22    9   49 1
    23   10   11 2
    24   10   12 1
    25   12   13 1
    26   12   19 1
    27   12   14 1
    28   14   15 1
    29   14   50 1
    30   14   51 1
    31   15   16 1
    32   15   52 1
    33   15   53 1
    34   16   17 2
    35   16   18 am
    36   18   19 1
    37   18   29 1
    38   19   20 1
    39   19   21 1
    40   21   26 ar
    41   21   22 ar
    42   22   23 ar
    43   22   54 1
    44   23   24 ar
    45   23   55 1
    46   24   25 ar
    47   24   27 1
    48   25   26 ar
    49   25   56 1
    50   26   57 1
    51   27   28 1
    52   28   58 1
    53   28   59 1
    54   28   60 1
    55   29   34 ar
    56   29   30 ar
    57   30   31 ar
    58   30   61 1
    59   31   32 ar
    60   31   62 1
    61   32   33 ar
    62   32   35 1
    63   33   34 ar
    64   33   63 1
    65   34   64 1
    66   35   36 1
    67   36   65 1
    68   36   66 1
    69   36   67 1
@<TRIPOS>MOLECULE
ZINC04613828
   54    56     0     0     0
SMALL
USER_CHARGES
6-[(3-isopropoxycarbonyl-6-methyl-4,5,6,7-tetrahydrobenzothiophen-2-yl)carbamoyl]cyclohex-3-ene-1-carboxylic acid
@<TRIPOS>ATOM
      1 C1         -1.8614    5.0906    0.1397 C.3       1 <0>        -0.1460
      2 C2         -0.7412    4.0842    0.4105 C.3       1 <0>        -0.0865
      3 H1         -0.4751    4.1093    1.4672 H         1 <0>         0.0748
      4 C3          0.4843    4.4402   -0.4361 C.3       1 <0>        -0.1113
      5 C4          1.6832    3.5985    0.0045 C.3       1 <0>        -0.0598
      6 C5          1.2786    2.1295    0.0013 C.2       1 <0>        -0.0589
      7 C6         -0.0219    1.7661    0.0118 C.2       1 <0>        -0.2308
      8 S1          0.0021   -0.0041    0.0020 S.3       1 <0>         0.2574
      9 C7          1.7155   -0.2608   -0.0154 C.2       1 <0>         0.1130
     10 C8          2.2287    1.0296   -0.0134 C.2       1 <0>        -0.2422
     11 C9          3.6726    1.2729   -0.0256 C.2       1 <0>         0.5400
     12 O1          4.2624    1.3800   -1.0840 O.2       1 <0>        -0.4998
     13 O2          4.3486    1.3784    1.1368 O.3       1 <0>        -0.3461
     14 C10         5.7777    1.6198    1.0487 C.3       1 <0>         0.0749
     15 C11         6.2360    2.4196    2.2699 C.3       1 <0>        -0.1480
     16 C12         6.5193    0.2822    1.0074 C.3       1 <0>        -0.1719
     17 N1          2.4063   -1.4625   -0.0279 N.am      1 <0>        -0.6297
     18 C13         1.7302   -2.6284   -0.0278 C.2       1 <0>         0.5231
     19 O3          0.5175   -2.6262   -0.0168 O.2       1 <0>        -0.4491
     20 C14         2.4813   -3.9349   -0.0413 C.3       1 <0>        -0.0768
     21 H2          3.1064   -3.9888   -0.9326 H         1 <0>         0.1009
     22 C15         3.3537   -4.0397    1.2114 C.3       1 <0>        -0.0813
     23 C16         3.8984   -5.4314    1.3470 C.2       1 <0>        -0.1704
     24 C17         3.4225   -6.4605    0.7225 C.2       1 <0>        -0.1368
     25 C18         2.2660   -6.4040   -0.2321 C.3       1 <0>        -0.0735
     26 C19         1.4858   -5.1019   -0.0383 C.3       1 <0>        -0.1114
     27 H3          0.9570   -5.1300    0.9144 H         1 <0>         0.0772
     28 C20         0.4999   -4.9297   -1.1650 C.2       1 <0>         0.4779
     29 O4          0.5813   -3.9727   -1.8980 O.co2     1 <0>        -0.6287
     30 C21        -1.2131    2.6736    0.0335 C.3       1 <0>        -0.0259
     31 H4         -2.1295    5.0605   -0.9164 H         1 <0>         0.0564
     32 H5         -2.7326    4.8355    0.7431 H         1 <0>         0.0566
     33 H6         -1.5203    6.0927    0.3996 H         1 <0>         0.0552
     34 H7          0.7176    5.4973   -0.3089 H         1 <0>         0.0669
     35 H8          0.2681    4.2409   -1.4857 H         1 <0>         0.0670
     36 H9          1.9859    3.8920    1.0097 H         1 <0>         0.0754
     37 H10         2.5127    3.7507   -0.6860 H         1 <0>         0.0698
     38 H11         5.9956    2.1842    0.1421 H         1 <0>         0.0837
     39 H12         6.0181    1.8551    3.1765 H         1 <0>         0.0676
     40 H13         7.3088    2.6008    2.2038 H         1 <0>         0.0765
     41 H14         5.7077    3.3725    2.2993 H         1 <0>         0.0637
     42 H15         6.1928   -0.2876    0.1374 H         1 <0>         0.0614
     43 H16         7.5921    0.4634    0.9413 H         1 <0>         0.0747
     44 H17         6.3014   -0.2822    1.9141 H         1 <0>         0.0675
     45 H18         3.3762   -1.4642   -0.0367 H         1 <0>         0.4113
     46 H19         4.1808   -3.3338    1.1358 H         1 <0>         0.0686
     47 H20         2.7550   -3.7988    2.0899 H         1 <0>         0.0758
     48 H21         4.7396   -5.5839    2.0070 H         1 <0>         0.1030
     49 H22         3.8864   -7.4196    0.8998 H         1 <0>         0.1022
     50 H23         1.6053   -7.2516   -0.0498 H         1 <0>         0.0830
     51 H24         2.6412   -6.4517   -1.2543 H         1 <0>         0.0721
     52 H25        -1.6767    2.6948   -0.9529 H         1 <0>         0.0804
     53 H26        -1.9329    2.3172    0.7704 H         1 <0>         0.0791
     54 O5         -0.4687   -5.8395   -1.3541 O.co2     1 <0>        -0.7720
@<TRIPOS>BOND
     1    1    2 1
     2    1   31 1
     3    1   32 1
     4    1   33 1
     5    2    3 1
     6    2   30 1
     7    2    4 1
     8    4    5 1
     9    4   34 1
    10    4   35 1
    11    5    6 1
    12    5   36 1
    13    5   37 1
    14    6   10 1
    15    6    7 2
    16    7    8 1
    17    7   30 1
    18    8    9 1
    19    9   10 2
    20    9   17 1
    21   10   11 1
    22   11   12 2
    23   11   13 1
    24   13   14 1
    25   14   15 1
    26   14   16 1
    27   14   38 1
    28   15   39 1
    29   15   40 1
    30   15   41 1
    31   16   42 1
    32   16   43 1
    33   16   44 1
    34   17   18 am
    35   17   45 1
    36   18   19 2
    37   18   20 1
    38   20   21 1
    39   20   26 1
    40   20   22 1
    41   22   23 1
    42   22   46 1
    43   22   47 1
    44   23   24 2
    45   23   48 1
    46   24   25 1
    47   24   49 1
    48   25   26 1
    49   25   50 1
    50   25   51 1
    51   26   27 1
    52   26   28 1
    53   28   29 2
    54   28   54 1
    55   30   52 1
    56   30   53 1
@<TRIPOS>MOLECULE
ZINC13455204
   46    47     0     0     0
SMALL
USER_CHARGES
(E)-3-[4-[[(1R)-1-(4-ethoxyphenyl)ethyl]sulfamoyl]phenyl]prop-2-enoic acid
@<TRIPOS>ATOM
      1 C1          7.3167    8.2498   -7.5893 C.3       1 <0>        -0.1528
      2 C2          6.5613    7.3177   -6.6399 C.3       1 <0>         0.0539
      3 O1          5.4621    8.0205   -6.0569 O.3       1 <0>        -0.3169
      4 C3          4.6827    7.3309   -5.1828 C.ar      1 <0>         0.1292
      5 C4          3.5985    7.9516   -4.5796 C.ar      1 <0>        -0.1480
      6 C5          2.8081    7.2486   -3.6911 C.ar      1 <0>        -0.0674
      7 C6          3.0971    5.9277   -3.4025 C.ar      1 <0>        -0.1214
      8 C7          4.1804    5.3085   -3.9980 C.ar      1 <0>        -0.0691
      9 C8          4.9703    6.0053   -4.8919 C.ar      1 <0>        -0.2064
     10 C9          2.2334    5.1633   -2.4324 C.3       1 <0>         0.1928
     11 H1          1.6800    5.8647   -1.8081 H         1 <0>         0.1015
     12 C10         1.2497    4.2850   -3.2081 C.3       1 <0>        -0.1733
     13 N1          3.0797    4.3186   -1.5859 N.pl3     1 <0>        -1.1128
     14 S1          2.6721    4.0620   -0.0015 S.o2      1 <0>         2.6959
     15 O2          2.3945    5.3383    0.5582 O.2       1 <0>        -0.9588
     16 O3          3.6592    3.1927    0.5361 O.2       1 <0>        -0.9629
     17 C11         1.1542    3.1672    0.0076 C.ar      1 <0>        -0.6948
     18 C12         1.1710    1.7832    0.0005 C.ar      1 <0>        -0.0154
     19 C13        -0.0126    1.0758    0.0080 C.ar      1 <0>        -0.1393
     20 C14        -1.2321    1.7604    0.0174 C.ar      1 <0>         0.0310
     21 C15        -1.2405    3.1589    0.0299 C.ar      1 <0>        -0.1446
     22 C16        -0.0485    3.8519    0.0222 C.ar      1 <0>        -0.0165
     23 C17        -2.4999    1.0130    0.0193 C.2       1 <0>        -0.1430
     24 C18        -3.6743    1.6770    0.0284 C.2       1 <0>        -0.1159
     25 C19        -4.9341    0.9344    0.0303 C.2       1 <0>         0.4699
     26 O4         -4.9231   -0.2818    0.0236 O.co2     1 <0>        -0.6288
     27 H2          8.1551    7.7138   -8.0340 H         1 <0>         0.0782
     28 H3          6.6438    8.5894   -8.3768 H         1 <0>         0.0663
     29 H4          7.6892    9.1103   -7.0336 H         1 <0>         0.0663
     30 H5          7.2342    6.9781   -5.8524 H         1 <0>         0.0620
     31 H6          6.1887    6.4572   -7.1956 H         1 <0>         0.0621
     32 H7          3.3724    8.9834   -4.8047 H         1 <0>         0.1325
     33 H8          1.9639    7.7314   -3.2212 H         1 <0>         0.1348
     34 H9          4.4069    4.2780   -3.7673 H         1 <0>         0.1249
     35 H10         5.8141    5.5200   -5.3599 H         1 <0>         0.1280
     36 H11         1.8031    3.5836   -3.8325 H         1 <0>         0.0648
     37 H12         0.6250    3.7321   -2.5065 H         1 <0>         0.0703
     38 H13         0.6201    4.9135   -3.8379 H         1 <0>         0.0727
     39 H14         3.8788    3.9096   -1.9535 H         1 <0>         0.4157
     40 H15         2.1135    1.2561   -0.0106 H         1 <0>         0.1365
     41 H16         0.0021   -0.0041    0.0020 H         1 <0>         0.1344
     42 H17        -2.1782    3.6946    0.0410 H         1 <0>         0.1376
     43 H18        -0.0533    4.9319    0.0281 H         1 <0>         0.1373
     44 H19        -2.4901   -0.0669    0.0134 H         1 <0>         0.1335
     45 H20        -3.6841    2.7569    0.0344 H         1 <0>         0.1110
     46 O5         -6.1085    1.5983    0.0395 O.co2     1 <0>        -0.7551
@<TRIPOS>BOND
     1    1    2 1
     2    1   27 1
     3    1   28 1
     4    1   29 1
     5    2    3 1
     6    2   30 1
     7    2   31 1
     8    3    4 1
     9    4    9 ar
    10    4    5 ar
    11    5    6 ar
    12    5   32 1
    13    6    7 ar
    14    6   33 1
    15    7    8 ar
    16    7   10 1
    17    8    9 ar
    18    8   34 1
    19    9   35 1
    20   10   11 1
    21   10   12 1
    22   10   13 1
    23   12   36 1
    24   12   37 1
    25   12   38 1
    26   13   14 1
    27   13   39 1
    28   14   15 2
    29   14   16 2
    30   14   17 1
    31   17   22 ar
    32   17   18 ar
    33   18   19 ar
    34   18   40 1
    35   19   20 ar
    36   19   41 1
    37   20   21 ar
    38   20   23 1
    39   21   22 ar
    40   21   42 1
    41   22   43 1
    42   23   24 2
    43   23   44 1
    44   24   25 1
    45   24   45 1
    46   25   26 2
    47   25   46 1
@<TRIPOS>MOLECULE
ZINC34953771
   45    46     0     0     0
SMALL
USER_CHARGES

@<TRIPOS>ATOM
      1 C1         -0.0187    1.5258    0.0104 C.3       1 <0>        -0.1513
      2 C2          0.0021   -0.0041    0.0020 C.3       1 <0>         0.0605
      3 O1          0.6932   -0.4774    1.1597 O.3       1 <0>        -0.3498
      4 C3          0.8010   -1.8124    1.3044 C.2       1 <0>         0.5136
      5 O2          0.3215   -2.5544    0.4707 O.2       1 <0>        -0.5130
      6 C4          1.5024   -2.3741    2.4770 C.ar      1 <0>        -0.1455
      7 C5          2.0498   -1.5242    3.4401 C.ar      1 <0>        -0.0626
      8 C6          2.7035   -2.0553    4.5325 C.ar      1 <0>        -0.1220
      9 C7          2.8174   -3.4269    4.6751 C.ar      1 <0>        -0.0128
     10 C8          2.2777   -4.2749    3.7242 C.ar      1 <0>        -0.1112
     11 C9          1.6160   -3.7573    2.6300 C.ar      1 <0>        -0.0547
     12 C10         3.5330   -3.9999    5.8712 C.3       1 <0>         0.1008
     13 H1          3.8860   -3.1843    6.5023 H         1 <0>         0.0814
     14 C11         4.7101   -4.8074    5.4029 C.2       1 <0>        -0.2269
     15 C12         4.6781   -6.1670    5.4033 C.2       1 <0>         0.3660
     16 N1          3.5602   -6.8396    5.8443 N.pl3     1 <0>        -0.6210
     17 C13         2.6270   -6.1953    6.6083 C.2       1 <0>         0.2574
     18 C14         2.5786   -4.8539    6.6555 C.2       1 <0>        -0.2883
     19 C15         1.6024   -4.2298    7.4651 C.2       1 <0>         0.5266
     20 O3          0.8211   -4.9067    8.1072 O.2       1 <0>        -0.5399
     21 O4          1.5367   -2.8832    7.5260 O.3       1 <0>        -0.3478
     22 C16         0.5256   -2.3202    8.3642 C.3       1 <0>         0.0648
     23 C17         0.6060   -0.7934    8.3053 C.3       1 <0>        -0.1514
     24 C18         1.6379   -7.0027    7.4087 C.3       1 <0>        -0.1139
     25 S1          6.0772   -7.0748    4.8348 S.3       1 <0>        -0.8457
     26 C19         5.8881   -4.1328    4.9469 C.1       1 <0>         0.3153
     27 N2          6.8225   -3.5975    4.5852 N.1       1 <0>        -0.4878
     28 H2          1.0039    1.9031    0.0027 H         1 <0>         0.0669
     29 H3         -0.5459    1.8868   -0.8726 H         1 <0>         0.0774
     30 H4         -0.5289    1.8773    0.9072 H         1 <0>         0.0663
     31 H5         -1.0205   -0.3814    0.0098 H         1 <0>         0.0659
     32 H6          0.5123   -0.3556   -0.8948 H         1 <0>         0.0663
     33 H7          1.9619   -0.4534    3.3299 H         1 <0>         0.1320
     34 H8          3.1277   -1.3991    5.2781 H         1 <0>         0.1301
     35 H9          2.3708   -5.3445    3.8412 H         1 <0>         0.1257
     36 H10         1.1910   -4.4203    1.8910 H         1 <0>         0.1311
     37 H11        -0.4556   -2.6459    8.0188 H         1 <0>         0.0609
     38 H12         0.6781   -2.6527    9.3910 H         1 <0>         0.0610
     39 H13        -0.1653   -0.3640    8.9447 H         1 <0>         0.0725
     40 H14         1.5872   -0.4677    8.6508 H         1 <0>         0.0652
     41 H15         0.4535   -0.4609    7.2786 H         1 <0>         0.0658
     42 H16         1.8236   -8.0651    7.2507 H         1 <0>         0.0584
     43 H17         1.7492   -6.7679    8.4673 H         1 <0>         0.0994
     44 H18         0.6253   -6.7592    7.0871 H         1 <0>         0.0967
     45 H19         3.4343   -7.7729    5.6120 H         1 <0>         0.4180
@<TRIPOS>BOND
     1    1    2 1
     2    1   28 1
     3    1   29 1
     4    1   30 1
     5    2    3 1
     6    2   31 1
     7    2   32 1
     8    3    4 1
     9    4    5 2
    10    4    6 1
    11    6   11 ar
    12    6    7 ar
    13    7    8 ar
    14    7   33 1
    15    8    9 ar
    16    8   34 1
    17    9   10 ar
    18    9   12 1
    19   10   11 ar
    20   10   35 1
    21   11   36 1
    22   12   13 1
    23   12   18 1
    24   12   14 1
    25   14   15 2
    26   14   26 1
    27   15   16 1
    28   15   25 1
    29   16   17 1
    30   16   45 1
    31   17   18 2
    32   17   24 1
    33   18   19 1
    34   19   20 2
    35   19   21 1
    36   21   22 1
    37   22   23 1
    38   22   37 1
    39   22   38 1
    40   23   39 1
    41   23   40 1
    42   23   41 1
    43   24   42 1
    44   24   43 1
    45   24   44 1
    46   26   27 3
@<TRIPOS>MOLECULE
ZINC40116450
   49    51     0     0     0
SMALL
USER_CHARGES

@<TRIPOS>ATOM
      1 C1         -0.0695    1.4475   -0.0488 C.3       1 <0>        -0.1535
      2 C2         -0.0309   -0.0820   -0.0522 C.3       1 <0>        -0.1241
      3 C3          0.7068   -0.5763    1.1938 C.3       1 <0>        -0.1175
      4 C4          0.7454   -2.1058    1.1904 C.3       1 <0>        -0.1192
      5 C5          1.4831   -2.6001    2.4364 C.3       1 <0>         0.0600
      6 O1          1.5191   -4.0286    2.4333 O.3       1 <0>        -0.3190
      7 C6          2.1432   -4.6323    3.4787 C.ar      1 <0>         0.1185
      8 C7          2.7041   -3.8657    4.4898 C.ar      1 <0>        -0.2091
      9 C8          3.3375   -4.4818    5.5517 C.ar      1 <0>        -0.0760
     10 C9          3.4130   -5.8613    5.6072 C.ar      1 <0>        -0.1092
     11 C10         2.8551   -6.6276    4.6006 C.ar      1 <0>        -0.0509
     12 C11         2.2153   -6.0164    3.5396 C.ar      1 <0>        -0.1508
     13 C12         4.1049   -6.5307    6.7666 C.3       1 <0>         0.2669
     14 H1          4.2424   -5.8202    7.5816 H         1 <0>         0.0726
     15 C13         5.4412   -7.0816    6.3264 C.2       1 <0>        -0.5001
     16 C14         5.3970   -8.4187    6.5257 C.2       1 <0>         0.2635
     17 C15         4.0794   -8.7836    7.0835 C.2       1 <0>         0.5137
     18 O2          3.7323   -9.9121    7.3709 O.2       1 <0>        -0.5394
     19 N1          3.3190   -7.6814    7.2273 N.am      1 <0>        -0.7225
     20 O3          6.4016   -9.2853    6.2561 O.3       1 <0>        -0.6544
     21 C16         6.5695   -6.3139    5.7863 C.2       1 <0>         0.5435
     22 O4          6.9256   -6.4837    4.6334 O.2       1 <0>        -0.4552
     23 C17         7.2679   -5.3429    6.6337 C.2       1 <0>        -0.0605
     24 C18         8.2721   -4.4887    6.2316 C.2       1 <0>        -0.1563
     25 C19         8.6411   -3.7460    7.3624 C.2       1 <0>        -0.2238
     26 C20         7.8652   -4.1664    8.3874 C.2       1 <0>        -0.0083
     27 O5          7.0381   -5.1221    7.9447 O.3       1 <0>        -0.1406
     28 C21         7.9189   -3.6402    9.7985 C.3       1 <0>        -0.0732
     29 H2          0.9487    1.8366   -0.0511 H         1 <0>         0.0540
     30 H3         -0.5950    1.7996   -0.9365 H         1 <0>         0.0535
     31 H4         -0.5896    1.7959    0.8435 H         1 <0>         0.0536
     32 H5         -1.0490   -0.4712   -0.0499 H         1 <0>         0.0624
     33 H6          0.4892   -0.4304   -0.9445 H         1 <0>         0.0630
     34 H7          1.7250   -0.1871    1.1915 H         1 <0>         0.0652
     35 H8          0.1867   -0.2279    2.0861 H         1 <0>         0.0644
     36 H9         -0.2728   -2.4949    1.1927 H         1 <0>         0.0723
     37 H10         1.2655   -2.4542    0.2981 H         1 <0>         0.0732
     38 H11         2.5013   -2.2109    2.4341 H         1 <0>         0.0599
     39 H12         0.9630   -2.2517    3.3287 H         1 <0>         0.0588
     40 H13         2.6460   -2.7881    4.4465 H         1 <0>         0.1218
     41 H14         3.7743   -3.8854    6.3391 H         1 <0>         0.1212
     42 H15         2.9157   -7.7049    4.6460 H         1 <0>         0.1259
     43 H16         1.7758   -6.6155    2.7558 H         1 <0>         0.1261
     44 H17         2.4132   -7.6526    7.5733 H         1 <0>         0.4067
     45 H18         8.6927   -4.4078    5.2402 H         1 <0>         0.1527
     46 H19         9.4027   -2.9815    7.4066 H         1 <0>         0.1474
     47 H20         7.2305   -2.8012    9.8999 H         1 <0>         0.0798
     48 H21         7.6328   -4.4308   10.4922 H         1 <0>         0.0773
     49 H22         8.9323   -3.3080   10.0241 H         1 <0>         0.0858
@<TRIPOS>BOND
     1    1    2 1
     2    1   29 1
     3    1   30 1
     4    1   31 1
     5    2    3 1
     6    2   32 1
     7    2   33 1
     8    3    4 1
     9    3   34 1
    10    3   35 1
    11    4    5 1
    12    4   36 1
    13    4   37 1
    14    5    6 1
    15    5   38 1
    16    5   39 1
    17    6    7 1
    18    7   12 ar
    19    7    8 ar
    20    8    9 ar
    21    8   40 1
    22    9   10 ar
    23    9   41 1
    24   10   11 ar
    25   10   13 1
    26   11   12 ar
    27   11   42 1
    28   12   43 1
    29   13   14 1
    30   13   19 1
    31   13   15 1
    32   15   16 2
    33   15   21 1
    34   16   17 1
    35   16   20 1
    36   17   18 2
    37   17   19 am
    38   19   44 1
    39   21   22 2
    40   21   23 1
    41   23   27 1
    42   23   24 2
    43   24   25 1
    44   24   45 1
    45   25   26 2
    46   25   46 1
    47   26   27 1
    48   26   28 1
    49   28   47 1
    50   28   48 1
    51   28   49 1
@<TRIPOS>MOLECULE
ZINC55578476
   39    40     0     0     0
SMALL
USER_CHARGES

@<TRIPOS>ATOM
      1 C1         -0.0184    1.5028    0.0103 C.3       1 <0>        -0.1346
      2 C2          0.0021   -0.0041    0.0020 C.ar      1 <0>        -0.0457
      3 C3          0.0057   -0.6874   -1.2004 C.ar      1 <0>        -0.0991
      4 C4          0.0244   -2.0681   -1.2116 C.ar      1 <0>        -0.1177
      5 C5          0.0396   -2.7708   -0.0132 C.ar      1 <0>         0.1481
      6 C6          0.0359   -2.0814    1.1925 C.ar      1 <0>        -0.0801
      7 C7          0.0229   -0.7002    1.1965 C.ar      1 <0>        -0.1699
      8 C8          0.0251    0.0488    2.5042 C.3       1 <0>         0.5109
      9 F1          0.0475   -0.8638    3.5642 F         1 <0>        -0.1744
     10 F2          1.1570    0.8683    2.5703 F         1 <0>        -0.1737
     11 F3         -1.1273    0.8372    2.5919 F         1 <0>        -0.1761
     12 N1          0.0581   -4.1674   -0.0209 N.pl3     1 <0>        -1.0581
     13 S1          1.0780   -4.9763   -1.0445 S.o2      1 <0>         2.6943
     14 O1          0.8840   -6.3625   -0.7993 O.2       1 <0>        -0.9466
     15 O2          0.9043   -4.3987   -2.3311 O.2       1 <0>        -0.9586
     16 C9          2.7249   -4.6017   -0.5425 C.ar      1 <0>        -0.7319
     17 C10         3.3772   -3.5038   -1.0813 C.ar      1 <0>         0.0140
     18 C11         4.6675   -3.1993   -0.6970 C.ar      1 <0>        -0.2479
     19 C12         5.3218   -3.9929    0.2339 C.ar      1 <0>         0.2154
     20 C13         4.6653   -5.1050    0.7823 C.ar      1 <0>        -0.1860
     21 C14         3.3556   -5.3979    0.3874 C.ar      1 <0>         0.0507
     22 C15         5.3482   -5.9549    1.7707 C.2       1 <0>         0.5234
     23 O3          4.7721   -6.9237    2.2465 O.co2     1 <0>        -0.6874
     24 O4          6.4920   -5.6926    2.1167 O.co2     1 <0>        -0.6654
     25 O5          6.5897   -3.6955    0.6116 O.3       1 <0>        -0.2586
     26 C16         7.1937   -2.5485    0.0102 C.3       1 <0>         0.0163
     27 H1          1.0042    1.8801    0.0026 H         1 <0>         0.0822
     28 H2         -0.5455    1.8639   -0.8728 H         1 <0>         0.0782
     29 H3         -0.5286    1.8543    0.9071 H         1 <0>         0.0745
     30 H4         -0.0065   -0.1406   -2.1317 H         1 <0>         0.1419
     31 H5          0.0269   -2.6011   -2.1509 H         1 <0>         0.1685
     32 H6          0.0473   -2.6246    2.1259 H         1 <0>         0.1464
     33 H7         -0.5265   -4.6634    0.5733 H         1 <0>         0.4288
     34 H8          2.8727   -2.8827   -1.8067 H         1 <0>         0.1328
     35 H9          5.1687   -2.3422   -1.1220 H         1 <0>         0.1322
     36 H10         2.8416   -6.2497    0.8077 H         1 <0>         0.1502
     37 H11         8.2044   -2.4242    0.3989 H         1 <0>         0.0997
     38 H12         7.2342   -2.6839   -1.0706 H         1 <0>         0.0518
     39 H13         6.6031   -1.6626    0.2435 H         1 <0>         0.0515
@<TRIPOS>BOND
     1    1    2 1
     2    1   27 1
     3    1   28 1
     4    1   29 1
     5    2    7 ar
     6    2    3 ar
     7    3    4 ar
     8    3   30 1
     9    4    5 ar
    10    4   31 1
    11    5    6 ar
    12    5   12 1
    13    6    7 ar
    14    6   32 1
    15    7    8 1
    16    8    9 1
    17    8   10 1
    18    8   11 1
    19   12   13 1
    20   12   33 1
    21   13   14 2
    22   13   15 2
    23   13   16 1
    24   16   21 ar
    25   16   17 ar
    26   17   18 ar
    27   17   34 1
    28   18   19 ar
    29   18   35 1
    30   19   20 ar
    31   19   25 1
    32   20   21 ar
    33   20   22 1
    34   21   36 1
    35   22   23 2
    36   22   24 1
    37   25   26 1
    38   26   37 1
    39   26   38 1
    40   26   39 1
@<TRIPOS>MOLECULE
ZINC04628781
   55    58     0     0     0
SMALL
USER_CHARGES
6-[(10-propoxycarbonyl-8-thiabicyclo[5.3.0]deca-9,11-dien-9-yl)carbamoyl]bicyclo[2.2.1]hept-2-ene-5-carboxylic acid
@<TRIPOS>ATOM
      1 C1         -2.9278    7.2653   -0.9979 C.3       1 <0>        -0.1455
      2 C2         -1.8035    6.2967   -1.3703 C.3       1 <0>        -0.1271
      3 C3         -1.2043    5.6970   -0.0967 C.3       1 <0>         0.0680
      4 O1         -0.1373    4.7777   -0.4500 O.3       1 <0>        -0.3358
      5 C4          0.4997    4.1594    0.5655 C.2       1 <0>         0.5427
      6 O2          0.1716    4.3831    1.7152 O.2       1 <0>        -0.5139
      7 C5          1.5862    3.2189    0.2838 C.2       1 <0>        -0.2446
      8 C6          2.9692    3.6691    0.1965 C.2       1 <0>        -0.0492
      9 C7          3.8667    2.7002   -0.0823 C.2       1 <0>        -0.2318
     10 S1          2.9094    1.2141   -0.2091 S.3       1 <0>         0.2366
     11 C8          1.3349    1.8681    0.0949 C.2       1 <0>         0.1327
     12 N1          0.1188    1.2041    0.1339 N.am      1 <0>        -0.6121
     13 C9          0.0696   -0.1253   -0.0821 C.2       1 <0>         0.5416
     14 O3          1.0895   -0.7406   -0.3107 O.2       1 <0>        -0.4863
     15 C10        -1.2525   -0.8472   -0.0397 C.3       1 <0>        -0.0951
     16 H1         -1.7669   -0.6475    0.9003 H         1 <0>         0.0928
     17 C11        -1.0462   -2.3829   -0.2372 C.3       1 <0>        -0.0497
     18 H2         -0.6970   -2.9389    0.6328 H         1 <0>         0.0976
     19 C12        -2.4525   -2.7863   -0.8141 C.3       1 <0>        -0.1206
     20 C13        -2.3498   -1.7787   -2.0170 C.3       1 <0>        -0.0635
     21 H3         -3.1664   -1.7943   -2.7389 H         1 <0>         0.0945
     22 C14        -2.1349   -0.4383   -1.2445 C.3       1 <0>        -0.1312
     23 H4         -3.0884   -0.0362   -0.9021 H         1 <0>         0.0791
     24 C15        -1.4166    0.5636   -2.1114 C.2       1 <0>         0.4577
     25 O4         -0.3736    0.2645   -2.6430 O.co2     1 <0>        -0.6045
     26 C16        -0.9528   -2.1366   -2.5388 C.2       1 <0>        -0.1167
     27 C17        -0.2017   -2.4847   -1.5133 C.2       1 <0>        -0.1638
     28 C18         5.3453    2.8465   -0.2639 C.3       1 <0>        -0.0298
     29 C19         5.9198    3.6636    0.9011 C.3       1 <0>        -0.1147
     30 C20         5.8748    5.1408    0.5232 C.3       1 <0>        -0.1183
     31 C21         4.6587    5.4212   -0.3574 C.3       1 <0>        -0.1231
     32 C22         3.3706    5.1244    0.4026 C.3       1 <0>        -0.0568
     33 H5         -3.3547    7.6925   -1.9053 H         1 <0>         0.0626
     34 H6         -3.7024    6.7293   -0.4494 H         1 <0>         0.0572
     35 H7         -2.5273    8.0641   -0.3738 H         1 <0>         0.0530
     36 H8         -1.0290    6.8326   -1.9188 H         1 <0>         0.0704
     37 H9         -2.2040    5.4978   -1.9945 H         1 <0>         0.0846
     38 H10        -1.9789    5.1610    0.4519 H         1 <0>         0.0673
     39 H11        -0.8038    6.4958    0.5275 H         1 <0>         0.0631
     40 H12        -0.6974    1.6969    0.3128 H         1 <0>         0.4184
     41 H13        -2.4870   -3.8253   -1.1415 H         1 <0>         0.0754
     42 H14        -3.2683   -2.5440   -0.1330 H         1 <0>         0.0699
     43 H15        -0.6380   -2.1085   -3.5715 H         1 <0>         0.1167
     44 H16         0.8330   -2.7900   -1.5631 H         1 <0>         0.1208
     45 H17         5.8093    1.8603   -0.2805 H         1 <0>         0.0713
     46 H18         5.5475    3.3605   -1.2036 H         1 <0>         0.0847
     47 H19         6.9515    3.3638    1.0852 H         1 <0>         0.0661
     48 H20         5.3241    3.4967    1.7986 H         1 <0>         0.0676
     49 H21         6.7826    5.4026   -0.0204 H         1 <0>         0.0613
     50 H22         5.8117    5.7438    1.4290 H         1 <0>         0.0603
     51 H23         4.7052    4.7929   -1.2468 H         1 <0>         0.0766
     52 H24         4.6659    6.4686   -0.6590 H         1 <0>         0.0627
     53 H25         2.5761    5.7744    0.0361 H         1 <0>         0.0655
     54 H26         3.5266    5.3098    1.4654 H         1 <0>         0.0748
     55 O5         -1.9354    1.7881   -2.2929 O.co2     1 <0>        -0.7594
@<TRIPOS>BOND
     1    1    2 1
     2    1   33 1
     3    1   34 1
     4    1   35 1
     5    2    3 1
     6    2   36 1
     7    2   37 1
     8    3    4 1
     9    3   38 1
    10    3   39 1
    11    4    5 1
    12    5    6 2
    13    5    7 1
    14    7   11 2
    15    7    8 1
    16    8   32 1
    17    8    9 2
    18    9   10 1
    19    9   28 1
    20   10   11 1
    21   11   12 1
    22   12   13 am
    23   12   40 1
    24   13   14 2
    25   13   15 1
    26   15   16 1
    27   15   22 1
    28   15   17 1
    29   17   18 1
    30   17   27 1
    31   17   19 1
    32   19   20 1
    33   19   41 1
    34   19   42 1
    35   20   21 1
    36   20   22 1
    37   20   26 1
    38   22   23 1
    39   22   24 1
    40   24   25 2
    41   24   55 1
    42   26   27 2
    43   26   43 1
    44   27   44 1
    45   28   29 1
    46   28   45 1
    47   28   46 1
    48   29   30 1
    49   29   47 1
    50   29   48 1
    51   30   31 1
    52   30   49 1
    53   30   50 1
    54   31   32 1
    55   31   51 1
    56   31   52 1
    57   32   53 1
    58   32   54 1
@<TRIPOS>MOLECULE
ZINC17077593
   50    51     0     0     0
SMALL
USER_CHARGES
(1R,6S)-6-[(3-ethoxycarbonyl-4,5-dimethyl-2-thienyl)carbamoyl]-3,4-dimethyl-cyclohex-3-ene-1-carboxylic acid
@<TRIPOS>ATOM
      1 C1         -0.8099    9.3338   -2.7970 C.3       1 <0>        -0.1496
      2 C2         -0.1414    9.1388   -1.4347 C.3       1 <0>         0.0561
      3 O1          0.7846    8.0226   -1.5053 O.3       1 <0>        -0.3549
      4 C3          1.4612    7.7160   -0.3794 C.2       1 <0>         0.5363
      5 O2          1.2815    8.3647    0.6338 O.2       1 <0>        -0.4857
      6 C4          2.4120    6.6024   -0.3769 C.2       1 <0>        -0.2380
      7 C5          3.8053    6.7948   -0.7032 C.2       1 <0>        -0.0613
      8 C6          4.5976    5.7084   -0.6786 C.2       1 <0>        -0.2307
      9 S1          3.4854    4.3999   -0.2077 S.3       1 <0>         0.2204
     10 C7          2.0185    5.3073   -0.0563 C.2       1 <0>         0.1211
     11 N1          0.7568    4.8525    0.2935 N.am      1 <0>        -0.5992
     12 C8          0.5630    3.5471    0.5675 C.2       1 <0>         0.5339
     13 O3          1.4926    2.7705    0.5079 O.2       1 <0>        -0.4994
     14 C9         -0.8088    3.0526    0.9479 C.3       1 <0>        -0.0824
     15 H1         -1.5643    3.7605    0.6071 H         1 <0>         0.0946
     16 C10        -1.0586    1.6855    0.3073 C.3       1 <0>        -0.0580
     17 C11        -0.1997    0.6434    0.9617 C.2       1 <0>        -0.1378
     18 C12         0.3799    0.7970    2.1088 C.2       1 <0>        -0.0999
     19 C13         0.2826    2.0428    2.9399 C.3       1 <0>        -0.0603
     20 C14        -0.8983    2.8953    2.4704 C.3       1 <0>        -0.1176
     21 H2         -1.8339    2.4028    2.7352 H         1 <0>         0.0878
     22 C15        -0.8335    4.2529    3.1214 C.2       1 <0>         0.4655
     23 O4         -0.7467    5.2464    2.4394 O.co2     1 <0>        -0.6387
     24 C16         1.2041   -0.3460    2.6429 C.3       1 <0>        -0.1164
     25 C17         0.0009   -0.6632    0.2380 C.3       1 <0>        -0.1068
     26 C18         6.0722    5.6198   -0.9769 C.3       1 <0>        -0.0549
     27 C19         4.3476    8.1544   -1.0616 C.3       1 <0>        -0.0969
     28 H3         -1.5050   10.1717   -2.7440 H         1 <0>         0.0776
     29 H4         -0.0485    9.5404   -3.5491 H         1 <0>         0.0643
     30 H5         -1.3525    8.4282   -3.0684 H         1 <0>         0.0662
     31 H6         -0.9027    8.9322   -0.6825 H         1 <0>         0.0722
     32 H7          0.4012   10.0444   -1.1633 H         1 <0>         0.0676
     33 H8          0.0133    5.4736    0.3412 H         1 <0>         0.4298
     34 H9         -0.8201    1.7353   -0.7551 H         1 <0>         0.0678
     35 H10        -2.1080    1.4165    0.4277 H         1 <0>         0.0787
     36 H11         0.1378    1.7694    3.9851 H         1 <0>         0.0755
     37 H12         1.2042    2.6162    2.8407 H         1 <0>         0.0683
     38 H13         0.5550   -1.0495    3.1643 H         1 <0>         0.0603
     39 H14         1.7000   -0.8539    1.8157 H         1 <0>         0.0612
     40 H15         1.9534    0.0385    3.3348 H         1 <0>         0.0567
     41 H16        -0.2906   -1.4875    0.8889 H         1 <0>         0.0567
     42 H17        -0.6123   -0.6773   -0.6630 H         1 <0>         0.0507
     43 H18         1.0507   -0.7697   -0.0352 H         1 <0>         0.0613
     44 H19         6.4044    4.5879   -0.8637 H         1 <0>         0.0681
     45 H20         6.2566    5.9508   -1.9989 H         1 <0>         0.0721
     46 H21         6.6220    6.2567   -0.2839 H         1 <0>         0.0726
     47 H22         4.2673    8.3054   -2.1381 H         1 <0>         0.0708
     48 H23         3.7738    8.9226   -0.5432 H         1 <0>         0.0599
     49 H24         5.3939    8.2186   -0.7627 H         1 <0>         0.0712
     50 O5         -0.8722    4.3582    4.4590 O.co2     1 <0>        -0.7570
@<TRIPOS>BOND
     1    1    2 1
     2    1   28 1
     3    1   29 1
     4    1   30 1
     5    2    3 1
     6    2   31 1
     7    2   32 1
     8    3    4 1
     9    4    5 2
    10    4    6 1
    11    6   10 2
    12    6    7 1
    13    7    8 2
    14    7   27 1
    15    8    9 1
    16    8   26 1
    17    9   10 1
    18   10   11 1
    19   11   12 am
    20   11   33 1
    21   12   13 2
    22   12   14 1
    23   14   15 1
    24   14   20 1
    25   14   16 1
    26   16   17 1
    27   16   34 1
    28   16   35 1
    29   17   18 2
    30   17   25 1
    31   18   19 1
    32   18   24 1
    33   19   20 1
    34   19   36 1
    35   19   37 1
    36   20   21 1
    37   20   22 1
    38   22   23 2
    39   22   50 1
    40   24   38 1
    41   24   39 1
    42   24   40 1
    43   25   41 1
    44   25   42 1
    45   25   43 1
    46   26   44 1
    47   26   45 1
    48   26   46 1
    49   27   47 1
    50   27   48 1
    51   27   49 1
@<TRIPOS>MOLECULE
ZINC02636392
   37    39     0     0     0
SMALL
USER_CHARGES

@<TRIPOS>ATOM
      1 C1         -0.0166    1.3733    0.0096 C.ar      1 <0>        -0.2357
      2 C2          1.1699    2.0899    0.0021 C.ar      1 <0>        -0.0403
      3 C3          2.3828    1.4328   -0.0134 C.ar      1 <0>        -0.2680
      4 C4          2.4220    0.0438   -0.0217 C.ar      1 <0>         0.3288
      5 C5          1.2224   -0.6846   -0.0136 C.ar      1 <0>        -0.2171
      6 C6          0.0021   -0.0041    0.0020 C.ar      1 <0>        -0.0396
      7 C7          1.2496   -2.1587   -0.0227 C.2       1 <0>         0.5660
      8 O1          2.3137   -2.7471   -0.0372 O.2       1 <0>        -0.4969
      9 N1          0.0951   -2.8540   -0.0150 N.am      1 <0>        -0.7481
     10 C8          0.1221   -4.3188   -0.0240 C.3       1 <0>         0.2061
     11 C9         -1.2891   -4.8473   -0.0127 C.2       1 <0>        -0.0225
     12 C10        -2.0351   -5.1217   -1.0978 C.2       1 <0>        -0.1934
     13 C11        -3.2834   -5.5913   -0.6286 C.2       1 <0>        -0.2174
     14 C12        -3.2256   -5.5758    0.7152 C.2       1 <0>        -0.0389
     15 O2         -2.0132   -5.1297    1.0826 O.3       1 <0>        -0.1714
     16 N2          3.6417   -0.6200   -0.0382 N.2       1 <0>        -1.0261
     17 S1          5.0545    0.2438   -0.0482 S.o2      1 <0>         2.6195
     18 O3          5.1006    0.9327   -1.2902 O.2       1 <0>        -1.0166
     19 O4          5.1267    0.9186    1.2003 O.2       1 <0>        -1.0185
     20 C13         6.3769   -0.9204   -0.0686 C.2       1 <0>        -0.6572
     21 C14         7.0098   -1.4740   -1.1312 C.2       1 <0>        -0.0374
     22 C15         8.0334   -2.3761   -0.9070 C.2       1 <0>        -0.1597
     23 C16         8.3734   -2.6798    0.3707 C.2       1 <0>        -0.1172
     24 S2          7.2353   -1.6704    1.3053 S.3       1 <0>         0.2034
     25 Cl1         9.6010   -3.7633    0.9473 Cl        1 <0>         0.0116
     26 H1         -0.9607    1.8975    0.0259 H         1 <0>         0.1072
     27 H2          1.1446    3.1696    0.0081 H         1 <0>         0.1071
     28 H3          3.3027    1.9985   -0.0195 H         1 <0>         0.1031
     29 H4         -0.9254   -0.5573    0.0079 H         1 <0>         0.1066
     30 H5         -0.7537   -2.3847   -0.0034 H         1 <0>         0.3940
     31 H6          0.6334   -4.6672   -0.9214 H         1 <0>         0.0938
     32 H7          0.6517   -4.6778    0.8584 H         1 <0>         0.0790
     33 H8         -1.7378   -5.0051   -2.1295 H         1 <0>         0.1501
     34 H9         -4.1225   -5.9025   -1.2332 H         1 <0>         0.1476
     35 H10        -4.0181   -5.8751    1.3850 H         1 <0>         0.2016
     36 H11         6.7187   -1.2148   -2.1384 H         1 <0>         0.1519
     37 H12         8.5540   -2.8321   -1.7361 H         1 <0>         0.1449
@<TRIPOS>BOND
     1    1    6 ar
     2    1    2 ar
     3    1   26 1
     4    2    3 ar
     5    2   27 1
     6    3    4 ar
     7    3   28 1
     8    4    5 ar
     9    4   16 1
    10    5    6 ar
    11    5    7 1
    12    6   29 1
    13    7    8 2
    14    7    9 am
    15    9   10 1
    16    9   30 1
    17   10   11 1
    18   10   31 1
    19   10   32 1
    20   11   15 1
    21   11   12 2
    22   12   13 1
    23   12   33 1
    24   13   14 2
    25   13   34 1
    26   14   15 1
    27   14   35 1
    28   16   17 1
    29   17   18 2
    30   17   19 2
    31   17   20 1
    32   20   24 1
    33   20   21 2
    34   21   22 1
    35   21   36 1
    36   22   23 2
    37   22   37 1
    38   23   24 1
    39   23   25 1
@<TRIPOS>MOLECULE
ZINC40475810
   45    47     0     0     0
SMALL
USER_CHARGES

@<TRIPOS>ATOM
      1 C1          0.3427    1.8501   -0.0494 C.3       1 <0>        -0.1519
      2 C2          0.2590    0.3241    0.0231 C.3       1 <0>         0.0613
      3 O1          0.8392   -0.2412   -1.1541 O.3       1 <0>        -0.3460
      4 C3          0.8455   -1.5802   -1.2477 C.2       1 <0>         0.4817
      5 O2          0.3741   -2.2501   -0.3595 O.2       1 <0>        -0.4932
      6 C4          1.4406   -2.2480   -2.4605 C.3       1 <0>        -0.0632
      7 H1          0.9039   -1.9230   -3.3519 H         1 <0>         0.1408
      8 C5          1.3142   -3.7635   -2.3175 C.3       1 <0>         0.0710
      9 H2          1.7985   -4.0756   -1.3922 H         1 <0>         0.0959
     10 C6          1.9474   -4.4737   -3.4611 C.2       1 <0>        -0.2762
     11 C7          2.8836   -4.0236   -4.3446 C.2       1 <0>         0.1199
     12 N1          3.2631   -4.9112   -5.2635 N.2       1 <0>        -0.5549
     13 C8          2.7581   -6.1252   -5.3062 C.2       1 <0>         0.2796
     14 S1          3.1295   -7.4256   -6.4356 S.3       1 <0>        -0.7324
     15 S2          1.6707   -6.1357   -4.0202 S.3       1 <0>         0.0675
     16 S3          3.5098   -2.3623   -4.2294 S.3       1 <0>        -0.0143
     17 C9          2.9170   -1.8545   -2.5844 C.3       1 <0>        -0.0779
     18 H3          3.0195   -0.7748   -2.4757 H         1 <0>         0.1676
     19 C10         3.7193   -2.5513   -1.5159 C.2       1 <0>         0.4728
     20 O3          3.7961   -2.0724   -0.4092 O.2       1 <0>        -0.4997
     21 O4          4.3487   -3.7039   -1.7935 O.3       1 <0>        -0.3194
     22 C11         5.0910   -4.3095   -0.7332 C.3       1 <0>         0.0631
     23 C12         5.7332   -5.6043   -1.2350 C.3       1 <0>        -0.1518
     24 C13        -0.1457   -4.1325   -2.2577 C.ar      1 <0>        -0.0949
     25 C14        -0.9803   -3.8254   -3.3151 C.ar      1 <0>        -0.0915
     26 C15        -2.3198   -4.1631   -3.2607 C.ar      1 <0>        -0.1303
     27 C16        -2.8277   -4.8094   -2.1486 C.ar      1 <0>        -0.1043
     28 C17        -1.9974   -5.1190   -1.0891 C.ar      1 <0>        -0.1510
     29 C18        -0.6515   -4.7857   -1.1435 C.ar      1 <0>         0.1428
     30 O5          0.1686   -5.0943   -0.1048 O.3       1 <0>        -0.4948
     31 H4          1.3871    2.1537   -0.1216 H         1 <0>         0.0677
     32 H5         -0.1995    2.2025   -0.9269 H         1 <0>         0.0669
     33 H6         -0.0998    2.2814    0.8486 H         1 <0>         0.0783
     34 H7          0.8013   -0.0282    0.9006 H         1 <0>         0.0693
     35 H8         -0.7854    0.0206    0.0953 H         1 <0>         0.0673
     36 H9          5.8693   -3.6244   -0.3971 H         1 <0>         0.0663
     37 H10         4.4213   -4.5341    0.0970 H         1 <0>         0.0662
     38 H11         6.2994   -6.0663   -0.4262 H         1 <0>         0.0775
     39 H12         4.9549   -6.2894   -1.5711 H         1 <0>         0.0700
     40 H13         6.4029   -5.3797   -2.0652 H         1 <0>         0.0688
     41 H14        -0.5860   -3.3207   -4.1848 H         1 <0>         0.1242
     42 H15        -2.9707   -3.9216   -4.0880 H         1 <0>         0.1234
     43 H16        -3.8745   -5.0719   -2.1083 H         1 <0>         0.1228
     44 H17        -2.3945   -5.6236   -0.2208 H         1 <0>         0.1249
     45 H18         0.2247   -4.4043    0.5705 H         1 <0>         0.3905
@<TRIPOS>BOND
     1    1    2 1
     2    1   31 1
     3    1   32 1
     4    1   33 1
     5    2    3 1
     6    2   34 1
     7    2   35 1
     8    3    4 1
     9    4    5 2
    10    4    6 1
    11    6    7 1
    12    6   17 1
    13    6    8 1
    14    8    9 1
    15    8   10 1
    16    8   24 1
    17   10   15 1
    18   10   11 2
    19   11   12 1
    20   11   16 1
    21   12   13 2
    22   13   14 1
    23   13   15 1
    24   16   17 1
    25   17   18 1
    26   17   19 1
    27   19   20 2
    28   19   21 1
    29   21   22 1
    30   22   23 1
    31   22   36 1
    32   22   37 1
    33   23   38 1
    34   23   39 1
    35   23   40 1
    36   24   29 ar
    37   24   25 ar
    38   25   26 ar
    39   25   41 1
    40   26   27 ar
    41   26   42 1
    42   27   28 ar
    43   27   43 1
    44   28   29 ar
    45   28   44 1
    46   29   30 1
    47   30   45 1
@<TRIPOS>MOLECULE
ZINC57485481
   51    51     0     0     0
SMALL
USER_CHARGES

@<TRIPOS>ATOM
      1 C1          0.8883    2.8715   -2.2731 C.3       1 <0>        -0.1525
      2 C2          0.6844    1.6836   -1.3306 C.3       1 <0>        -0.1322
      3 C3          1.0873    0.3915   -2.0441 C.3       1 <0>         0.1475
      4 H1          2.1089    0.4834   -2.4129 H         1 <0>         0.1012
      5 C4          1.0024   -0.7802   -1.0639 C.3       1 <0>        -0.1050
      6 C5          1.2750   -2.0888   -1.8084 C.3       1 <0>        -0.1530
      7 C6          2.0435   -0.5963    0.0421 C.3       1 <0>        -0.1476
      8 N1          0.1813    0.1526   -3.1703 N.pl3     1 <0>        -1.1116
      9 S1          0.7749    0.1086   -4.7156 S.o2      1 <0>         2.6826
     10 O1         -0.3452   -0.0431   -5.5768 O.2       1 <0>        -0.9615
     11 O2          1.6841    1.1944   -4.8325 O.2       1 <0>        -0.9667
     12 C7          1.7287   -1.3653   -4.8656 C.ar      1 <0>        -0.6562
     13 C8          3.0729   -1.3543   -4.5403 C.ar      1 <0>        -0.0466
     14 C9          3.8251   -2.5086   -4.6569 C.ar      1 <0>        -0.1322
     15 C10         3.2358   -3.6771   -5.0985 C.ar      1 <0>        -0.0730
     16 C11         1.8860   -3.6918   -5.4256 C.ar      1 <0>         0.2333
     17 C12         1.1319   -2.5314   -5.3023 C.ar      1 <0>        -0.0455
     18 C13        -0.3342   -2.5440   -5.6506 C.3       1 <0>        -0.1061
     19 N2          1.2869   -4.8717   -5.8725 N.2       1 <0>        -1.1304
     20 S2          0.7607   -4.9917   -7.4381 S.o2      1 <0>         2.5201
     21 O3         -0.3035   -4.0552   -7.5357 O.2       1 <0>        -1.0233
     22 O4          1.9329   -4.8411   -8.2271 O.2       1 <0>        -1.0375
     23 C14         0.1207   -6.6826   -7.5865 C.3       1 <0>        -0.6396
     24 C15         4.0565   -4.9346   -5.2258 C.3       1 <0>        -0.0907
     25 C16         3.7193   -0.0812   -4.0581 C.3       1 <0>        -0.1723
     26 H2          1.9372    2.9288   -2.5638 H         1 <0>         0.0621
     27 H3          0.2715    2.7399   -3.1622 H         1 <0>         0.0538
     28 H4          0.6012    3.7920   -1.7648 H         1 <0>         0.0493
     29 H5          1.3011    1.8152   -0.4416 H         1 <0>         0.0735
     30 H6         -0.3645    1.6262   -1.0400 H         1 <0>         0.0643
     31 H7          0.0061   -0.8137   -0.6231 H         1 <0>         0.0710
     32 H8          2.3021   -2.0921   -2.1731 H         1 <0>         0.0631
     33 H9          1.1272   -2.9298   -1.1309 H         1 <0>         0.0496
     34 H10         0.5897   -2.1766   -2.6515 H         1 <0>         0.0648
     35 H11         1.8493    0.3360    0.5725 H         1 <0>         0.0557
     36 H12         1.9830   -1.4310    0.7405 H         1 <0>         0.0555
     37 H13         3.0398   -0.5628   -0.3987 H         1 <0>         0.0566
     38 H14        -0.7663    0.0203   -3.0108 H         1 <0>         0.4128
     39 H15         4.8747   -2.4964   -4.4027 H         1 <0>         0.1089
     40 H16        -0.4738   -2.1312   -6.6498 H         1 <0>         0.0905
     41 H17        -0.7048   -3.5688   -5.6259 H         1 <0>         0.0842
     42 H18        -0.8844   -1.9411   -4.9283 H         1 <0>         0.0409
     43 H19        -0.6928   -6.8268   -6.8755 H         1 <0>         0.1118
     44 H20        -0.2490   -6.8436   -8.5992 H         1 <0>         0.0958
     45 H21         0.9193   -7.3933   -7.3739 H         1 <0>         0.1104
     46 H22         3.9493   -5.5317   -4.3202 H         1 <0>         0.0579
     47 H23         3.7089   -5.5101   -6.0837 H         1 <0>         0.0734
     48 H24         5.1050   -4.6715   -5.3655 H         1 <0>         0.0425
     49 H25         3.5085    0.0541   -2.9973 H         1 <0>         0.0616
     50 H26         4.7971   -0.1410   -4.2096 H         1 <0>         0.0605
     51 H27         3.3199    0.7640   -4.6186 H         1 <0>         0.1286
@<TRIPOS>BOND
     1    1    2 1
     2    1   26 1
     3    1   27 1
     4    1   28 1
     5    2    3 1
     6    2   29 1
     7    2   30 1
     8    3    4 1
     9    3    5 1
    10    3    8 1
    11    5    6 1
    12    5    7 1
    13    5   31 1
    14    6   32 1
    15    6   33 1
    16    6   34 1
    17    7   35 1
    18    7   36 1
    19    7   37 1
    20    8    9 1
    21    8   38 1
    22    9   10 2
    23    9   11 2
    24    9   12 1
    25   12   17 ar
    26   12   13 ar
    27   13   14 ar
    28   13   25 1
    29   14   15 ar
    30   14   39 1
    31   15   16 ar
    32   15   24 1
    33   16   17 ar
    34   16   19 1
    35   17   18 1
    36   18   40 1
    37   18   41 1
    38   18   42 1
    39   19   20 1
    40   20   21 2
    41   20   22 2
    42   20   23 1
    43   23   43 1
    44   23   44 1
    45   23   45 1
    46   24   46 1
    47   24   47 1
    48   24   48 1
    49   25   49 1
    50   25   50 1
    51   25   51 1
@<TRIPOS>MOLECULE
ZINC02114872
   58    60     0     0     0
SMALL
USER_CHARGES
6-[2-(methyl-oxo-BLAHyl)oxypropanoylamino]hexanoic acid
@<TRIPOS>ATOM
      1 C1          1.0431    1.7421   -4.8610 C.3       1 <0>        -0.1217
      2 C2          1.8302    2.0177   -3.6058 C.ar      1 <0>         0.0106
      3 C3          3.1562    2.3917   -3.7002 C.ar      1 <0>        -0.1740
      4 C4          3.8894    2.6463   -2.5502 C.ar      1 <0>         0.1851
      5 C5          3.2723    2.5254   -1.2940 C.ar      1 <0>        -0.1854
      6 C6          1.9249    2.1412   -1.2094 C.ar      1 <0>         0.1980
      7 C7          1.2154    1.8924   -2.3712 C.ar      1 <0>        -0.2386
      8 O1          1.3220    2.0204    0.0003 O.3       1 <0>        -0.2651
      9 C8         -0.0812    1.7501    0.0017 C.3       1 <0>         0.0558
     10 H1         -0.5509    2.2630   -0.8377 H         1 <0>         0.1037
     11 C9         -0.3104    0.2430   -0.1288 C.3       1 <0>        -0.1777
     12 C10        -0.6860    2.2403    1.2920 C.2       1 <0>         0.5166
     13 O2          0.0277    2.6863    2.1653 O.2       1 <0>        -0.5138
     14 N1         -2.0200    2.1832    1.4755 N.am      1 <0>        -0.7222
     15 C11        -2.6079    2.6598    2.7299 C.3       1 <0>         0.1194
     16 C12        -4.1270    2.4842    2.6803 C.3       1 <0>        -0.1305
     17 C13        -4.7410    2.9820    3.9903 C.3       1 <0>        -0.1169
     18 C14        -6.2600    2.8063    3.9407 C.3       1 <0>        -0.0973
     19 C15        -6.8740    3.3041    5.2507 C.3       1 <0>        -0.1589
     20 C16        -8.3703    3.1311    5.2018 C.2       1 <0>         0.4569
     21 O3         -8.8920    2.6582    4.2200 O.co2     1 <0>        -0.6431
     22 C17         4.0524    2.7986   -0.0807 C.2       1 <0>         0.0527
     23 C18         5.3455    3.1634   -0.2200 C.2       1 <0>        -0.2314
     24 C19         5.8985    3.2790   -1.5196 C.2       1 <0>         0.5133
     25 O4          7.0624    3.6179   -1.6366 O.2       1 <0>        -0.4649
     26 O5          5.1860    3.0158   -2.6230 O.3       1 <0>        -0.2677
     27 C20         6.2386    3.4546    0.9567 C.3       1 <0>        -0.0553
     28 C21         5.4087    3.7133    2.2126 C.3       1 <0>        -0.1217
     29 C22         4.4077    2.5628    2.3753 C.3       1 <0>        -0.1201
     30 C23         3.3744    2.6654    1.2546 C.3       1 <0>        -0.0861
     31 H2          0.5716    2.6631   -5.2038 H         1 <0>         0.0829
     32 H3          1.7129    1.3670   -5.6349 H         1 <0>         0.0763
     33 H4          0.2756    0.9968   -4.6523 H         1 <0>         0.0755
     34 H5          3.6228    2.4857   -4.6696 H         1 <0>         0.1451
     35 H6          0.1774    1.5996   -2.3149 H         1 <0>         0.1428
     36 H7         -1.3807    0.0368   -0.1277 H         1 <0>         0.0833
     37 H8          0.1270   -0.1116   -1.0620 H         1 <0>         0.0778
     38 H9          0.1592   -0.2699    0.7106 H         1 <0>         0.0778
     39 H10        -2.5908    1.8265    0.7770 H         1 <0>         0.4018
     40 H11        -2.2027    2.0849    3.5626 H         1 <0>         0.0710
     41 H12        -2.3683    3.7145    2.8658 H         1 <0>         0.0705
     42 H13        -4.5322    3.0591    1.8476 H         1 <0>         0.0695
     43 H14        -4.3666    1.4296    2.5443 H         1 <0>         0.0698
     44 H15        -4.3357    2.4071    4.8230 H         1 <0>         0.0615
     45 H16        -4.5014    4.0366    4.1262 H         1 <0>         0.0614
     46 H17        -6.6653    3.3812    3.1080 H         1 <0>         0.0600
     47 H18        -6.4996    1.7517    3.8048 H         1 <0>         0.0601
     48 H19        -6.4688    2.7292    6.0834 H         1 <0>         0.0625
     49 H20        -6.6345    4.3587    5.3866 H         1 <0>         0.0625
     50 H21         6.8442    4.3343    0.7389 H         1 <0>         0.0812
     51 H22         6.8943    2.6011    1.1290 H         1 <0>         0.0776
     52 H23         4.8712    4.6560    2.1098 H         1 <0>         0.0675
     53 H24         6.0630    3.7567    3.0833 H         1 <0>         0.0735
     54 H25         3.9105    2.6422    3.3421 H         1 <0>         0.0762
     55 H26         4.9297    1.6083    2.3078 H         1 <0>         0.0655
     56 H27         2.7439    3.5379    1.4260 H         1 <0>         0.0986
     57 H28         2.7540    1.7691    1.2547 H         1 <0>         0.1060
     58 O6         -9.1234    3.5024    6.2491 O.co2     1 <0>        -0.7781
@<TRIPOS>BOND
     1    1    2 1
     2    1   31 1
     3    1   32 1
     4    1   33 1
     5    2    7 ar
     6    2    3 ar
     7    3    4 ar
     8    3   34 1
     9    4   26 1
    10    4    5 ar
    11    5    6 ar
    12    5   22 1
    13    6    7 ar
    14    6    8 1
    15    7   35 1
    16    8    9 1
    17    9   10 1
    18    9   11 1
    19    9   12 1
    20   11   36 1
    21   11   37 1
    22   11   38 1
    23   12   13 2
    24   12   14 am
    25   14   15 1
    26   14   39 1
    27   15   16 1
    28   15   40 1
    29   15   41 1
    30   16   17 1
    31   16   42 1
    32   16   43 1
    33   17   18 1
    34   17   44 1
    35   17   45 1
    36   18   19 1
    37   18   46 1
    38   18   47 1
    39   19   20 1
    40   19   48 1
    41   19   49 1
    42   20   21 2
    43   20   58 1
    44   22   30 1
    45   22   23 2
    46   23   24 1
    47   23   27 1
    48   24   25 2
    49   24   26 1
    50   27   28 1
    51   27   50 1
    52   27   51 1
    53   28   29 1
    54   28   52 1
    55   28   53 1
    56   29   30 1
    57   29   54 1
    58   29   55 1
    59   30   56 1
    60   30   57 1
@<TRIPOS>MOLECULE
ZINC13205920
   53    55     0     0     0
SMALL
USER_CHARGES
2-[3-[2-[[(1S)-1-(o-tolyl)ethyl]amino]-2-oxo-ethyl]sulfanyl-5-(p-tolyl)-1,2,4-triazol-4-yl]acetic acid
@<TRIPOS>ATOM
      1 C1         -4.2065   -3.9404    0.0514 C.3       1 <0>        -0.1128
      2 C2         -3.5293   -2.6688    0.4935 C.ar      1 <0>        -0.0810
      3 C3         -3.8042   -2.1404    1.7423 C.ar      1 <0>        -0.1256
      4 C4         -3.1877   -0.9766    2.1531 C.ar      1 <0>        -0.0756
      5 C5         -2.2854   -0.3318    1.3056 C.ar      1 <0>        -0.0146
      6 C6         -2.0170   -0.8670    0.0448 C.ar      1 <0>        -0.0987
      7 C7         -2.6360   -2.0346   -0.3515 C.ar      1 <0>        -0.1158
      8 C8         -1.6215    0.9160    1.7391 C.2       1 <0>         0.2272
      9 N1         -2.0111    1.7109    2.7084 N.2       1 <0>        -0.2794
     10 N2         -1.2019    2.7037    2.8136 N.2       1 <0>        -0.3031
     11 C9         -0.2426    2.6005    1.9209 C.2       1 <0>         0.1490
     12 N3         -0.4788    1.4632    1.2027 N.pl3     1 <0>        -0.4154
     13 C10         0.3213    0.9330    0.0959 C.3       1 <0>         0.0414
     14 C11        -0.1736    1.5125   -1.2043 C.2       1 <0>         0.4555
     15 O1         -1.0995    2.2886   -1.2062 O.co2     1 <0>        -0.6067
     16 S1          1.0969    3.7221    1.6916 S.3       1 <0>         0.0878
     17 C12         0.7205    4.9299    2.9860 C.3       1 <0>        -0.1523
     18 C13         1.7649    6.0164    2.9783 C.2       1 <0>         0.5384
     19 O2          2.6741    5.9778    2.1766 O.2       1 <0>        -0.5185
     20 N4          1.6885    7.0308    3.8623 N.am      1 <0>        -0.7228
     21 C14         2.7037    8.0870    3.8549 C.3       1 <0>         0.1807
     22 H1          3.6588    7.6706    3.5347 H         1 <0>         0.1058
     23 C15         2.2804    9.1945    2.8879 C.3       1 <0>        -0.1591
     24 C16         2.8446    8.6581    5.2423 C.ar      1 <0>        -0.0905
     25 C17         1.7803    8.6047    6.1232 C.ar      1 <0>        -0.1120
     26 C18         1.9108    9.1251    7.3970 C.ar      1 <0>        -0.1201
     27 C19         3.1027    9.7067    7.7874 C.ar      1 <0>        -0.1177
     28 C20         4.1651    9.7644    6.9051 C.ar      1 <0>        -0.1168
     29 C21         4.0358    9.2405    5.6322 C.ar      1 <0>        -0.0736
     30 C22         5.1940    9.3038    4.6701 C.3       1 <0>        -0.1241
     31 H2         -5.1395   -3.6974   -0.4571 H         1 <0>         0.0703
     32 H3         -3.5515   -4.4827   -0.6306 H         1 <0>         0.0663
     33 H4         -4.4182   -4.5610    0.9222 H         1 <0>         0.0650
     34 H5         -4.5025   -2.6403    2.3971 H         1 <0>         0.1259
     35 H6         -3.4031   -0.5651    3.1282 H         1 <0>         0.1335
     36 H7         -1.3232   -0.3705   -0.6174 H         1 <0>         0.1386
     37 H8         -2.4258   -2.4522   -1.3250 H         1 <0>         0.1279
     38 H9          0.2289   -0.1527    0.0683 H         1 <0>         0.1091
     39 H10         1.3668    1.2052    0.2404 H         1 <0>         0.1042
     40 H11        -0.2604    5.3676    2.8005 H         1 <0>         0.1262
     41 H12         0.7194    4.4339    3.9566 H         1 <0>         0.1242
     42 H13         0.9613    7.0616    4.5035 H         1 <0>         0.4019
     43 H14         1.3253    9.6109    3.2081 H         1 <0>         0.0599
     44 H15         3.0357    9.9803    2.8824 H         1 <0>         0.0682
     45 H16         2.1785    8.7814    1.8844 H         1 <0>         0.0688
     46 H17         0.8480    8.1537    5.8170 H         1 <0>         0.1210
     47 H18         1.0805    9.0803    8.0863 H         1 <0>         0.1233
     48 H19         3.2036   10.1164    8.7816 H         1 <0>         0.1219
     49 H20         5.0961   10.2192    7.2099 H         1 <0>         0.1231
     50 H21         5.1400   10.2294    4.0969 H         1 <0>         0.0742
     51 H22         6.1307    9.2753    5.2267 H         1 <0>         0.0681
     52 H23         5.1490    8.4526    3.9908 H         1 <0>         0.0732
     53 O3          0.4144    1.1663   -2.3602 O.co2     1 <0>        -0.7443
@<TRIPOS>BOND
     1    1    2 1
     2    1   31 1
     3    1   32 1
     4    1   33 1
     5    2    7 ar
     6    2    3 ar
     7    3    4 ar
     8    3   34 1
     9    4    5 ar
    10    4   35 1
    11    5    6 ar
    12    5    8 1
    13    6    7 ar
    14    6   36 1
    15    7   37 1
    16    8   12 1
    17    8    9 2
    18    9   10 1
    19   10   11 2
    20   11   12 1
    21   11   16 1
    22   12   13 1
    23   13   14 1
    24   13   38 1
    25   13   39 1
    26   14   15 2
    27   14   53 1
    28   16   17 1
    29   17   18 1
    30   17   40 1
    31   17   41 1
    32   18   19 2
    33   18   20 am
    34   20   21 1
    35   20   42 1
    36   21   22 1
    37   21   23 1
    38   21   24 1
    39   23   43 1
    40   23   44 1
    41   23   45 1
    42   24   29 ar
    43   24   25 ar
    44   25   26 ar
    45   25   46 1
    46   26   27 ar
    47   26   47 1
    48   27   28 ar
    49   27   48 1
    50   28   29 ar
    51   28   49 1
    52   29   30 1
    53   30   50 1
    54   30   51 1
    55   30   52 1
@<TRIPOS>MOLECULE
ZINC19638361
   55    57     0     0     0
SMALL
USER_CHARGES
(1S,6R)-6-[[3-ethoxycarbonyl-4-(4-methoxyphenyl)-5-methyl-2-thienyl]carbamoyl]cyclohex-3-ene-1-carboxylic acid
@<TRIPOS>ATOM
      1 C1         -1.9259   -5.1474    0.9111 C.3       1 <0>        -0.1549
      2 C2         -1.3342   -4.4729   -0.3282 C.3       1 <0>         0.0620
      3 O1         -0.2609   -3.5807    0.0723 O.3       1 <0>        -0.3394
      4 C3          0.3708   -2.9035   -0.9086 C.2       1 <0>         0.5470
      5 O2          0.0329   -3.0551   -2.0674 O.2       1 <0>        -0.5098
      6 C4          1.4619   -1.9868   -0.5789 C.2       1 <0>        -0.2356
      7 C5          2.8413   -2.4330   -0.5270 C.2       1 <0>        -0.0226
      8 C6          3.7729   -1.5003   -0.2043 C.2       1 <0>        -0.2147
      9 S1          2.8093   -0.0205    0.0239 S.3       1 <0>         0.2260
     10 C7          1.2287   -0.6456   -0.3035 C.2       1 <0>         0.1279
     11 N1          0.0186    0.0296   -0.2885 N.am      1 <0>        -0.6123
     12 C8         -0.0162    1.3436    0.0094 C.2       1 <0>         0.5343
     13 O3          1.0114    1.9350    0.2644 O.2       1 <0>        -0.5069
     14 C9         -1.3314    2.0792    0.0197 C.3       1 <0>        -0.0805
     15 H1         -2.0478    1.5042   -0.5854 H         1 <0>         0.0938
     16 C10        -1.1414    3.4806   -0.5649 C.3       1 <0>        -0.0711
     17 C11        -0.3437    4.3310    0.3799 C.2       1 <0>        -0.1596
     18 C12        -0.1606    4.0500    1.6301 C.2       1 <0>        -0.1257
     19 C13        -0.7120    2.8296    2.3072 C.3       1 <0>        -0.0733
     20 C14        -1.8326    2.2193    1.4626 C.3       1 <0>        -0.1201
     21 H2         -2.7302    2.8540    1.5025 H         1 <0>         0.0882
     22 C15        -2.2001    0.8622    2.0052 C.2       1 <0>         0.4667
     23 O4         -2.0755   -0.1196    1.3120 O.co2     1 <0>        -0.6399
     24 O5         -2.6660    0.7441    3.2585 O.co2     1 <0>        -0.7572
     25 C16         5.2638   -1.6749   -0.0716 C.3       1 <0>        -0.0583
     26 C17         3.2144   -3.8402   -0.8070 C.ar      1 <0>        -0.0638
     27 C18         3.0174   -4.3753   -2.0794 C.ar      1 <0>        -0.0594
     28 C19         3.3714   -5.6830   -2.3383 C.ar      1 <0>        -0.2070
     29 C20         3.9116   -6.4699   -1.3304 C.ar      1 <0>         0.1245
     30 C21         4.1038   -5.9420   -0.0610 C.ar      1 <0>        -0.1516
     31 C22         3.7577   -4.6332    0.2029 C.ar      1 <0>        -0.0581
     32 O6          4.2537   -7.7599   -1.5872 O.3       1 <0>        -0.3188
     33 C23         4.0292   -8.2387   -2.9147 C.3       1 <0>         0.0242
     34 H3         -2.7390   -5.8233    0.6077 H         1 <0>         0.0763
     35 H4         -2.3220   -4.3799    1.5923 H         1 <0>         0.0753
     36 H5         -1.1421   -5.7239    1.4242 H         1 <0>         0.0637
     37 H6         -0.9381   -5.2404   -1.0094 H         1 <0>         0.0635
     38 H7         -2.1180   -3.8964   -0.8414 H         1 <0>         0.0705
     39 H8         -0.9135   -0.5069   -0.5197 H         1 <0>         0.4577
     40 H9         -0.6072    3.4085   -1.5238 H         1 <0>         0.0683
     41 H10        -2.1245    3.9467   -0.7270 H         1 <0>         0.0803
     42 H11         0.0987    5.2420   -0.0496 H         1 <0>         0.0984
     43 H12         0.4310    4.7261    2.2649 H         1 <0>         0.0980
     44 H13         0.0895    2.0869    2.4338 H         1 <0>         0.0700
     45 H14        -1.1137    3.1071    3.2929 H         1 <0>         0.0767
     46 H15         5.7225   -0.7135    0.2029 H         1 <0>         0.0698
     47 H16         5.6794   -2.0191   -1.0301 H         1 <0>         0.0733
     48 H17         5.4777   -2.4195    0.7093 H         1 <0>         0.0746
     49 H18         2.5926   -3.7650   -2.8627 H         1 <0>         0.1277
     50 H19         3.2235   -6.0966   -3.3249 H         1 <0>         0.1272
     51 H20         4.5250   -6.5567    0.7207 H         1 <0>         0.1315
     52 H21         3.9078   -4.2230    1.1906 H         1 <0>         0.1323
     53 H22         4.3476   -9.2893   -2.9843 H         1 <0>         0.0996
     54 H23         4.6086   -7.6320   -3.6262 H         1 <0>         0.0556
     55 H24         2.9585   -8.1633   -3.1555 H         1 <0>         0.0557
@<TRIPOS>BOND
     1    1    2 1
     2    1   34 1
     3    1   35 1
     4    1   36 1
     5    2    3 1
     6    2   37 1
     7    2   38 1
     8    3    4 1
     9    4    5 2
    10    4    6 1
    11    6   10 2
    12    6    7 1
    13    7    8 2
    14    7   26 1
    15    8    9 1
    16    8   25 1
    17    9   10 1
    18   10   11 1
    19   11   12 am
    20   11   39 1
    21   12   13 2
    22   12   14 1
    23   14   15 1
    24   14   20 1
    25   14   16 1
    26   16   17 1
    27   16   40 1
    28   16   41 1
    29   17   18 2
    30   17   42 1
    31   18   19 1
    32   18   43 1
    33   19   20 1
    34   19   44 1
    35   19   45 1
    36   20   21 1
    37   20   22 1
    38   22   23 2
    39   22   24 1
    40   25   46 1
    41   25   47 1
    42   25   48 1
    43   26   31 ar
    44   26   27 ar
    45   27   28 ar
    46   27   49 1
    47   28   29 ar
    48   28   50 1
    49   29   30 ar
    50   29   32 1
    51   30   31 ar
    52   30   51 1
    53   31   52 1
    54   32   33 1
    55   33   53 1
    56   33   54 1
    57   33   55 1
@<TRIPOS>MOLECULE
ZINC36049895
   53    55     0     0     0
SMALL
USER_CHARGES

@<TRIPOS>ATOM
      1 C1         -0.0012    1.4244    0.2516 C.3       1 <0>        -0.1493
      2 C2          0.1773   -0.0951    0.2416 C.3       1 <0>         0.0659
      3 O1          0.7446   -0.4999   -1.0059 O.3       1 <0>        -0.3510
      4 C3          0.9682   -1.8215   -1.1782 C.2       1 <0>         0.5363
      5 O2          0.6877   -2.6078   -0.2903 O.2       1 <0>        -0.5505
      6 C4          1.5220   -2.2874   -2.3768 C.2       1 <0>        -0.3913
      7 C5          1.8963   -3.6093   -2.5238 C.2       1 <0>         0.3008
      8 N1          2.4184   -4.0357   -3.6623 N.2       1 <0>        -0.5972
      9 C6          2.6255   -3.2823   -4.7227 C.2       1 <0>         0.3202
     10 N2          2.3244   -1.9504   -4.7827 N.pl3     1 <0>        -0.5124
     11 C7          1.7245   -1.3619   -3.5557 C.3       1 <0>         0.2594
     12 H1          0.7552   -0.9399   -3.8213 H         1 <0>         0.0711
     13 C8          2.6114   -0.2285   -3.1087 C.ar      1 <0>        -0.0660
     14 C9          3.9602   -0.4476   -2.8994 C.ar      1 <0>        -0.0922
     15 C10         4.7737    0.5921   -2.4894 C.ar      1 <0>        -0.1237
     16 C11         4.2387    1.8509   -2.2891 C.ar      1 <0>        -0.1211
     17 C12         2.8901    2.0701   -2.4994 C.ar      1 <0>        -0.1237
     18 C13         2.0773    1.0314   -2.9135 C.ar      1 <0>        -0.0725
     19 C14         2.6013   -1.2979   -5.9676 C.2       1 <0>         0.2311
     20 C15         3.1453   -2.0225   -6.9700 C.2       1 <0>        -0.3061
     21 S1          3.2672   -3.6396   -6.2319 S.3       1 <0>         0.1382
     22 C16         2.3140    0.1342   -6.1328 C.2       1 <0>        -0.4651
     23 C17         2.7105    0.7763   -7.2485 C.2       1 <0>         0.5025
     24 O3          3.2741    0.0811   -8.2663 O.3       1 <0>        -0.7048
     25 N3          2.5425    2.1465   -7.3554 N.pl3     1 <0>        -0.7494
     26 C18         2.8697    2.8289   -8.6098 C.3       1 <0>         0.1418
     27 C19         2.7139    4.3396   -8.4243 C.3       1 <0>         0.0501
     28 O4          3.6781    4.8052   -7.4779 O.3       1 <0>        -0.3823
     29 C20         3.6179    6.2114   -7.2307 C.3       1 <0>         0.0312
     30 C21         1.7091   -4.5719   -1.3795 C.3       1 <0>        -0.1064
     31 H2          0.9683    1.9050    0.1203 H         1 <0>         0.0650
     32 H3         -0.6652    1.7176   -0.5616 H         1 <0>         0.0625
     33 H4         -0.4339    1.7332    1.2032 H         1 <0>         0.0702
     34 H5          0.8413   -0.3883    1.0548 H         1 <0>         0.0575
     35 H6         -0.7922   -0.5757    0.3729 H         1 <0>         0.0574
     36 H7          4.3782   -1.4310   -3.0558 H         1 <0>         0.1023
     37 H8          5.8273    0.4208   -2.3251 H         1 <0>         0.1126
     38 H9          4.8742    2.6629   -1.9681 H         1 <0>         0.1126
     39 H10         2.4720    3.0535   -2.3426 H         1 <0>         0.1138
     40 H11         1.0244    1.2036   -3.0813 H         1 <0>         0.1143
     41 H12         3.4316   -1.7042   -7.9615 H         1 <0>         0.2373
     42 H13         1.7849    0.6716   -5.3597 H         1 <0>         0.0882
     43 H14         2.2081    2.6546   -6.5998 H         1 <0>         0.3871
     44 H15         3.8983    2.6014   -8.8896 H         1 <0>         0.0637
     45 H16         2.1955    2.4879   -9.3955 H         1 <0>         0.0622
     46 H17         2.8706    4.8411   -9.3793 H         1 <0>         0.0555
     47 H18         1.7107    4.5593   -8.0588 H         1 <0>         0.0493
     48 H19         2.6335    6.4699   -6.8406 H         1 <0>         0.0379
     49 H20         4.3809    6.4852   -6.5021 H         1 <0>         0.0828
     50 H21         3.7934    6.7517   -8.1610 H         1 <0>         0.0372
     51 H22         0.6909   -4.9608   -1.3947 H         1 <0>         0.0815
     52 H23         2.4146   -5.3968   -1.4794 H         1 <0>         0.0637
     53 H24         1.8863   -4.0544   -0.4367 H         1 <0>         0.1017
@<TRIPOS>BOND
     1    1    2 1
     2    1   31 1
     3    1   32 1
     4    1   33 1
     5    2    3 1
     6    2   34 1
     7    2   35 1
     8    3    4 1
     9    4    5 2
    10    4    6 1
    11    6   11 1
    12    6    7 2
    13    7    8 1
    14    7   30 1
    15    8    9 2
    16    9   21 1
    17    9   10 1
    18   10   11 1
    19   10   19 1
    20   11   12 1
    21   11   13 1
    22   13   18 ar
    23   13   14 ar
    24   14   15 ar
    25   14   36 1
    26   15   16 ar
    27   15   37 1
    28   16   17 ar
    29   16   38 1
    30   17   18 ar
    31   17   39 1
    32   18   40 1
    33   19   20 2
    34   19   22 1
    35   20   21 1
    36   20   41 1
    37   22   23 2
    38   22   42 1
    39   23   24 1
    40   23   25 1
    41   25   26 1
    42   25   43 1
    43   26   27 1
    44   26   44 1
    45   26   45 1
    46   27   28 1
    47   27   46 1
    48   27   47 1
    49   28   29 1
    50   29   48 1
    51   29   49 1
    52   29   50 1
    53   30   51 1
    54   30   52 1
    55   30   53 1
@<TRIPOS>MOLECULE
ZINC39898186
   53    56     0     0     0
SMALL
USER_CHARGES

@<TRIPOS>ATOM
      1 C1          1.7998   -3.6410   -2.7590 C.3       1 <0>         0.0317
      2 O1          0.6037   -2.8727   -2.6140 O.3       1 <0>        -0.3791
      3 C2          0.6397   -1.9398   -1.5321 C.3       1 <0>         0.0390
      4 C3         -0.7250   -1.2611   -1.3983 C.3       1 <0>         0.1412
      5 N1         -1.7408   -2.2664   -1.0758 N.am      1 <0>        -0.5916
      6 C4         -2.0741   -2.7519    0.2696 C.3       1 <0>         0.2495
      7 H1         -1.2016   -3.2183    0.7269 H         1 <0>         0.1106
      8 C5         -3.1680   -3.7679    0.0866 C.2       1 <0>        -0.1737
      9 C6         -4.0458   -4.6770    0.6869 C.2       1 <0>         0.1134
     10 N2         -4.7573   -5.2320   -0.2746 N.2       1 <0>        -0.2256
     11 N3         -4.4158   -4.7636   -1.4219 N.pl3     1 <0>        -0.3318
     12 H2         -4.8062   -5.0272   -2.2698 H         1 <0>         0.4543
     13 C7         -3.4220   -3.8388   -1.2697 C.2       1 <0>        -0.0540
     14 C8         -2.5323   -2.8989   -1.9607 C.2       1 <0>         0.6037
     15 O2         -2.5112   -2.7193   -3.1634 O.2       1 <0>        -0.5036
     16 C9         -4.1557   -4.9643    2.1388 C.ar      1 <0>        -0.0261
     17 C10        -3.2536   -4.3954    3.0343 C.ar      1 <0>        -0.0766
     18 C11        -3.3602   -4.6654    4.3847 C.ar      1 <0>        -0.0429
     19 C12        -4.3613   -5.5006    4.8512 C.ar      1 <0>        -0.0862
     20 C13        -5.2610   -6.0696    3.9701 C.ar      1 <0>        -0.1334
     21 C14        -5.1683   -5.8021    2.6137 C.ar      1 <0>         0.1391
     22 O3         -6.0561   -6.3569    1.7473 O.3       1 <0>        -0.4786
     23 Cl1        -2.2353   -3.9559    5.5005 Cl        1 <0>        -0.0617
     24 C15        -2.5611   -1.6119    1.1265 C.ar      1 <0>        -0.0605
     25 C16        -2.0723   -1.4550    2.4106 C.ar      1 <0>        -0.1433
     26 C17        -2.5171   -0.4103    3.1992 C.ar      1 <0>        -0.0693
     27 C18        -3.4519    0.4796    2.7060 C.ar      1 <0>        -0.2006
     28 C19        -3.9437    0.3244    1.4184 C.ar      1 <0>         0.1348
     29 C20        -3.4912   -0.7214    0.6267 C.ar      1 <0>        -0.1249
     30 O4         -4.8632    1.1985    0.9310 O.3       1 <0>        -0.3104
     31 C21        -5.2790    2.2542    1.7998 C.3       1 <0>         0.0877
     32 C22        -6.2933    3.1161    1.0932 C.2       1 <0>        -0.1611
     33 C23        -7.3814    3.4928    1.7179 C.2       1 <0>        -0.1664
     34 H3          2.6262   -2.9806   -3.0218 H         1 <0>         0.0419
     35 H4          2.0232   -4.1464   -1.8194 H         1 <0>         0.0401
     36 H5          1.6624   -4.3820   -3.5465 H         1 <0>         0.0853
     37 H6          0.8764   -2.4653   -0.6070 H         1 <0>         0.0542
     38 H7          1.4026   -1.1862   -1.7274 H         1 <0>         0.0662
     39 H8         -0.6844   -0.5174   -0.6025 H         1 <0>         0.1033
     40 H9         -0.9821   -0.7735   -2.3386 H         1 <0>         0.1016
     41 H10        -2.4713   -3.7441    2.6733 H         1 <0>         0.1413
     42 H11        -4.4391   -5.7085    5.9082 H         1 <0>         0.1408
     43 H12        -6.0398   -6.7203    4.3395 H         1 <0>         0.1435
     44 H13        -5.7810   -7.2159    1.3987 H         1 <0>         0.3943
     45 H14        -1.3422   -2.1501    2.7981 H         1 <0>         0.1276
     46 H15        -2.1339   -0.2899    4.2017 H         1 <0>         0.1299
     47 H16        -3.7996    1.2952    3.3228 H         1 <0>         0.1293
     48 H17        -3.8691   -0.8416   -0.3778 H         1 <0>         0.1251
     49 H18        -5.7258    1.8301    2.6990 H         1 <0>         0.0684
     50 H19        -4.4155    2.8602    2.0743 H         1 <0>         0.0733
     51 H20        -6.1232    3.4232    0.0719 H         1 <0>         0.1206
     52 H21        -7.5515    3.1858    2.7393 H         1 <0>         0.1002
     53 H22        -8.1084    4.1105    1.2115 H         1 <0>         0.1096
@<TRIPOS>BOND
     1    1    2 1
     2    1   34 1
     3    1   35 1
     4    1   36 1
     5    2    3 1
     6    3    4 1
     7    3   37 1
     8    3   38 1
     9    4    5 1
    10    4   39 1
    11    4   40 1
    12    5   14 am
    13    5    6 1
    14    6    7 1
    15    6    8 1
    16    6   24 1
    17    8   13 2
    18    8    9 1
    19    9   10 2
    20    9   16 1
    21   10   11 1
    22   11   12 1
    23   11   13 1
    24   13   14 1
    25   14   15 2
    26   16   21 ar
    27   16   17 ar
    28   17   18 ar
    29   17   41 1
    30   18   19 ar
    31   18   23 1
    32   19   20 ar
    33   19   42 1
    34   20   21 ar
    35   20   43 1
    36   21   22 1
    37   22   44 1
    38   24   29 ar
    39   24   25 ar
    40   25   26 ar
    41   25   45 1
    42   26   27 ar
    43   26   46 1
    44   27   28 ar
    45   27   47 1
    46   28   29 ar
    47   28   30 1
    48   29   48 1
    49   30   31 1
    50   31   32 1
    51   31   49 1
    52   31   50 1
    53   32   33 2
    54   32   51 1
    55   33   52 1
    56   33   53 1
@<TRIPOS>MOLECULE
ZINC04646603
   55    56     0     0     0
SMALL
USER_CHARGES
5-[(3-ethoxycarbonyl-6-tert-butyl-4,5,6,7-tetrahydrobenzothiophen-2-yl)amino]-5-oxo-pentanoic acid
@<TRIPOS>ATOM
      1 C1          2.3437   -8.8236    2.4624 C.3       1 <0>        -0.1526
      2 C2          2.6972   -8.3687    1.0450 C.3       1 <0>         0.0576
      3 O1          3.6109   -7.2422    1.1120 O.3       1 <0>        -0.3505
      4 C3          4.0234   -6.7178   -0.0603 C.2       1 <0>         0.5364
      5 O2          3.6296   -7.1900   -1.1099 O.2       1 <0>        -0.4982
      6 C4          4.9453   -5.5801   -0.0694 C.2       1 <0>        -0.2249
      7 C5          6.3853   -5.7765   -0.0890 C.2       1 <0>        -0.0604
      8 C6          7.1204   -4.6437   -0.0894 C.2       1 <0>        -0.2165
      9 S1          5.9315   -3.3321   -0.0719 S.3       1 <0>         0.2476
     10 C7          4.4766   -4.2729   -0.0636 C.2       1 <0>         0.0944
     11 N1          3.1637   -3.8287   -0.0487 N.am      1 <0>        -0.6278
     12 C8          2.8995   -2.5072   -0.0391 C.2       1 <0>         0.5081
     13 O3          3.8105   -1.7066   -0.0435 O.2       1 <0>        -0.4848
     14 C9          1.4720   -2.0242   -0.0229 C.3       1 <0>        -0.1344
     15 C10         1.4513   -0.4944   -0.0145 C.3       1 <0>        -0.0852
     16 C11         0.0021   -0.0041    0.0020 C.3       1 <0>        -0.1586
     17 C12        -0.0184    1.5028    0.0103 C.2       1 <0>         0.4580
     18 O4          1.0197    2.1211    0.0037 O.co2     1 <0>        -0.6372
     19 C13         8.6142   -4.5363   -0.1014 C.3       1 <0>        -0.0319
     20 C14         9.2007   -5.9075    0.2646 C.3       1 <0>        -0.0697
     21 H1          9.0386   -6.1030    1.3246 H         1 <0>         0.0767
     22 C15         8.5005   -6.9826   -0.5715 C.3       1 <0>        -0.1153
     23 C16         7.0536   -7.1458   -0.1027 C.3       1 <0>        -0.0611
     24 C17        10.7008   -5.9203   -0.0357 C.3       1 <0>        -0.0626
     25 C18        11.3952   -4.8339    0.7879 C.3       1 <0>        -0.1455
     26 C19        11.2825   -7.2874    0.3299 C.3       1 <0>        -0.1439
     27 C20        10.9250   -5.6525   -1.5253 C.3       1 <0>        -0.1485
     28 H2          3.2521   -9.1231    2.9851 H         1 <0>         0.0666
     29 H3          1.8693   -8.0024    2.9998 H         1 <0>         0.0678
     30 H4          1.6578   -9.6692    2.4122 H         1 <0>         0.0800
     31 H5          1.7888   -8.0692    0.5223 H         1 <0>         0.0703
     32 H6          3.1717   -9.1899    0.5076 H         1 <0>         0.0698
     33 H7          2.4351   -4.4690   -0.0452 H         1 <0>         0.4179
     34 H8          0.9717   -2.3993    0.8699 H         1 <0>         0.0995
     35 H9          0.9547   -2.3897   -0.9099 H         1 <0>         0.0994
     36 H10         1.9516   -0.1193   -0.9073 H         1 <0>         0.0717
     37 H11         1.9686   -0.1289    0.8726 H         1 <0>         0.0718
     38 H12        -0.4983   -0.3791    0.8948 H         1 <0>         0.0644
     39 H13        -0.5153   -0.3696   -0.8850 H         1 <0>         0.0645
     40 H14         8.9534   -4.2454   -1.0956 H         1 <0>         0.0864
     41 H15         8.9347   -3.7926    0.6282 H         1 <0>         0.0817
     42 H16         8.5101   -6.6885   -1.6210 H         1 <0>         0.0693
     43 H17         9.0263   -7.9305   -0.4563 H         1 <0>         0.0731
     44 H18         6.5202   -7.8060   -0.7865 H         1 <0>         0.0712
     45 H19         7.0405   -7.5689    0.9018 H         1 <0>         0.0772
     46 H20        11.2355   -5.0247    1.8492 H         1 <0>         0.0550
     47 H21        12.4639   -4.8430    0.5740 H         1 <0>         0.0539
     48 H22        10.9808   -3.8599    0.5275 H         1 <0>         0.0590
     49 H23        10.7878   -8.0614   -0.2569 H         1 <0>         0.0583
     50 H24        12.3512   -7.2966    0.1159 H         1 <0>         0.0538
     51 H25        11.1228   -7.4782    1.3911 H         1 <0>         0.0544
     52 H26        10.5107   -4.6786   -1.7858 H         1 <0>         0.0599
     53 H27        11.9938   -5.6616   -1.7393 H         1 <0>         0.0531
     54 H28        10.4304   -6.4265   -2.1121 H         1 <0>         0.0580
     55 O5         -1.1898    2.1580    0.0194 O.co2     1 <0>        -0.7773
@<TRIPOS>BOND
     1    1    2 1
     2    1   28 1
     3    1   29 1
     4    1   30 1
     5    2    3 1
     6    2   31 1
     7    2   32 1
     8    3    4 1
     9    4    5 2
    10    4    6 1
    11    6   10 2
    12    6    7 1
    13    7   23 1
    14    7    8 2
    15    8    9 1
    16    8   19 1
    17    9   10 1
    18   10   11 1
    19   11   12 am
    20   11   33 1
    21   12   13 2
    22   12   14 1
    23   14   15 1
    24   14   34 1
    25   14   35 1
    26   15   16 1
    27   15   36 1
    28   15   37 1
    29   16   17 1
    30   16   38 1
    31   16   39 1
    32   17   18 2
    33   17   55 1
    34   19   20 1
    35   19   40 1
    36   19   41 1
    37   20   21 1
    38   20   22 1
    39   20   24 1
    40   22   23 1
    41   22   42 1
    42   22   43 1
    43   23   44 1
    44   23   45 1
    45   24   25 1
    46   24   26 1
    47   24   27 1
    48   25   46 1
    49   25   47 1
    50   25   48 1
    51   26   49 1
    52   26   50 1
    53   26   51 1
    54   27   52 1
    55   27   53 1
    56   27   54 1
@<TRIPOS>MOLECULE
ZINC19634467
   57    59     0     0     0
SMALL
USER_CHARGES
(1S,6S)-6-[[4-(4-ethylphenyl)-3-isopropoxycarbonyl-2-thienyl]carbamoyl]cyclohex-3-ene-1-carboxylic acid
@<TRIPOS>ATOM
      1 C1          6.0206   -5.8625   -8.4940 C.3       1 <0>        -0.1476
      2 C2          4.5996   -6.1289   -7.9934 C.3       1 <0>        -0.0856
      3 C3          4.0440   -4.8753   -7.3682 C.ar      1 <0>        -0.0844
      4 C4          3.3518   -3.9654   -8.1471 C.ar      1 <0>        -0.1174
      5 C5          2.8416   -2.8153   -7.5804 C.ar      1 <0>        -0.0977
      6 C6          3.0244   -2.5714   -6.2199 C.ar      1 <0>        -0.0315
      7 C7          3.7275   -3.4896   -5.4410 C.ar      1 <0>        -0.1071
      8 C8          4.2286   -4.6387   -6.0178 C.ar      1 <0>        -0.1169
      9 C9          2.4788   -1.3380   -5.6052 C.2       1 <0>        -0.0257
     10 C10         2.7026   -0.1134   -6.1465 C.2       1 <0>        -0.2473
     11 S1          1.8454    0.9867   -5.0397 S.3       1 <0>         0.2597
     12 C11         1.2206   -0.1637   -3.9072 C.2       1 <0>         0.1242
     13 C12         1.6843   -1.3795   -4.3920 C.2       1 <0>        -0.2444
     14 C13         1.3829   -2.6408   -3.7150 C.2       1 <0>         0.5442
     15 O1          0.3839   -3.2677   -4.0132 O.2       1 <0>        -0.4962
     16 O2          2.2128   -3.1087   -2.7599 O.3       1 <0>        -0.3508
     17 C14         1.8510   -4.3663   -2.1306 C.3       1 <0>         0.0752
     18 C15         3.1197   -5.1016   -1.6941 C.3       1 <0>        -0.1496
     19 C16         0.9747   -4.0908   -0.9071 C.3       1 <0>        -0.1724
     20 N1          0.4473    0.0728   -2.7819 N.am      1 <0>        -0.6415
     21 C17         0.0937    1.3328   -2.4599 C.2       1 <0>         0.5222
     22 O3          0.4522    2.2597   -3.1550 O.2       1 <0>        -0.4497
     23 C18        -0.7473    1.5900   -1.2361 C.3       1 <0>        -0.0738
     24 H1         -1.7018    1.0577   -1.3609 H         1 <0>         0.1014
     25 C19        -0.0127    1.0858    0.0080 C.3       1 <0>        -0.0823
     26 C20        -0.7096    1.5670    1.2469 C.2       1 <0>        -0.1701
     27 C21        -1.5605    2.5397    1.2709 C.2       1 <0>        -0.1360
     28 C22        -1.9832    3.3155    0.0579 C.3       1 <0>        -0.0750
     29 C23        -0.9852    3.0974   -1.0815 C.3       1 <0>        -0.1140
     30 H2         -0.0412    3.6201   -0.8681 H         1 <0>         0.0783
     31 C24        -1.5444    3.6562   -2.3645 C.2       1 <0>         0.4765
     32 O4         -1.7348    2.9269   -3.3088 O.co2     1 <0>        -0.6289
     33 O5         -1.8310    4.9642   -2.4582 O.co2     1 <0>        -0.7732
     34 H3          6.4261   -6.7775   -8.9503 H         1 <0>         0.0564
     35 H4          6.6567   -5.5614   -7.6486 H         1 <0>         0.0560
     36 H5          6.0005   -5.0571   -9.2429 H         1 <0>         0.0563
     37 H6          3.9635   -6.4300   -8.8388 H         1 <0>         0.0709
     38 H7          4.6196   -6.9343   -7.2445 H         1 <0>         0.0702
     39 H8          3.2108   -4.1553   -9.2009 H         1 <0>         0.1219
     40 H9          2.3013   -2.1056   -8.1895 H         1 <0>         0.1257
     41 H10         3.8761   -3.3037   -4.3876 H         1 <0>         0.1287
     42 H11         4.7698   -5.3526   -5.4147 H         1 <0>         0.1197
     43 H12         3.2649    0.1339   -7.0348 H         1 <0>         0.1866
     44 H13         1.3001   -4.9491   -2.8835 H         1 <0>         0.0845
     45 H14         2.8457   -6.0543   -1.2174 H         1 <0>         0.0774
     46 H15         3.6758   -4.4795   -0.9773 H         1 <0>         0.0690
     47 H16         3.7497   -5.2996   -2.5738 H         1 <0>         0.0641
     48 H17         0.7006   -5.0435   -0.4304 H         1 <0>         0.0752
     49 H18         0.0626   -3.5621   -1.2210 H         1 <0>         0.0620
     50 H19         1.5309   -3.4688   -0.1903 H         1 <0>         0.0690
     51 H20         0.1221   -0.7679   -2.1514 H         1 <0>         0.4344
     52 H21         0.0011   -0.0141    0.0050 H         1 <0>         0.0691
     53 H22         1.0197    1.4655    0.0033 H         1 <0>         0.0764
     54 H23        -0.4561    1.0350    2.1757 H         1 <0>         0.1038
     55 H24        -2.0221    2.8433    2.2221 H         1 <0>         0.1043
     56 H25        -2.9788    2.9772   -0.2652 H         1 <0>         0.0726
     57 H26        -2.0219    4.3871    0.3031 H         1 <0>         0.0831
@<TRIPOS>BOND
     1    1    2 1
     2    1   34 1
     3    1   35 1
     4    1   36 1
     5    2    3 1
     6    2   37 1
     7    2   38 1
     8    3    8 ar
     9    3    4 ar
    10    4    5 ar
    11    4   39 1
    12    5    6 ar
    13    5   40 1
    14    6    7 ar
    15    6    9 1
    16    7    8 ar
    17    7   41 1
    18    8   42 1
    19    9   13 1
    20    9   10 2
    21   10   11 1
    22   10   43 1
    23   11   12 1
    24   12   13 2
    25   12   20 1
    26   13   14 1
    27   14   15 2
    28   14   16 1
    29   16   17 1
    30   17   18 1
    31   17   19 1
    32   17   44 1
    33   18   45 1
    34   18   46 1
    35   18   47 1
    36   19   48 1
    37   19   49 1
    38   19   50 1
    39   20   21 am
    40   20   51 1
    41   21   22 2
    42   21   23 1
    43   23   24 1
    44   23   29 1
    45   23   25 1
    46   25   26 1
    47   25   52 1
    48   25   53 1
    49   26   27 2
    50   26   54 1
    51   27   28 1
    52   27   55 1
    53   28   29 1
    54   28   56 1
    55   28   57 1
    56   29   30 1
    57   29   31 1
    58   31   32 2
    59   31   33 1
@<TRIPOS>MOLECULE
ZINC39997073
   45    46     0     0     0
SMALL
USER_CHARGES

@<TRIPOS>ATOM
      1 C1          2.1642    1.3379    1.0840 C.3       1 <0>        -0.1513
      2 C2          1.9515   -0.1722    0.9605 C.3       1 <0>        -0.1195
      3 C3          2.4271   -0.6433   -0.4153 C.3       1 <0>        -0.1027
      4 C4          2.2144   -2.1534   -0.5388 C.3       1 <0>        -0.1041
      5 S1          2.7783   -2.7121   -2.1699 S.3       1 <0>        -0.0114
      6 C5          2.4708   -4.4470   -2.1561 C.2       1 <0>        -0.0638
      7 N1          1.9466   -5.2118   -1.2070 N.2       1 <0>        -0.2432
      8 N2          1.7931   -6.4543   -1.3602 N.2       1 <0>        -0.3422
      9 C6          2.1486   -7.0710   -2.4843 C.2       1 <0>         0.3652
     10 S2          2.7696   -5.6776   -3.4217 S.3       1 <0>        -0.0647
     11 N3          2.0605   -8.3829   -2.8256 N.2       1 <0>        -0.6021
     12 C7          1.5586   -9.2509   -1.9756 C.2       1 <0>         0.4668
     13 O1          1.1296   -8.8375   -0.7605 O.3       1 <0>        -0.6270
     14 C8          1.4633  -10.6700   -2.3447 C.2       1 <0>        -0.0282
     15 C9          0.9372  -11.5798   -1.4537 C.2       1 <0>         0.0077
     16 C10         0.9950  -13.0131   -1.7505 C.ar      1 <0>        -0.0760
     17 C11         2.0912  -13.5446   -2.4446 C.ar      1 <0>        -0.0887
     18 C12         2.1397  -14.8871   -2.7191 C.ar      1 <0>        -0.1043
     19 C13         1.1043  -15.7211   -2.3109 C.ar      1 <0>         0.1081
     20 C14         0.0141  -15.1998   -1.6225 C.ar      1 <0>        -0.1110
     21 C15        -0.0430  -13.8601   -1.3367 C.ar      1 <0>        -0.0841
     22 C16        -1.1041  -16.1104   -1.1847 C.3       1 <0>        -0.1103
     23 O2          1.1578  -17.0491   -2.5859 O.3       1 <0>        -0.4922
     24 C17         3.3172  -15.4600   -3.4649 C.3       1 <0>        -0.1127
     25 C18         1.9173  -11.1074   -3.6305 C.1       1 <0>         0.2748
     26 N4          2.2774  -11.4544   -4.6505 N.1       1 <0>        -0.4301
     27 H1          3.2237    1.5663    0.9680 H         1 <0>         0.0540
     28 H2          1.5951    1.8497    0.3080 H         1 <0>         0.0541
     29 H3          1.8254    1.6736    2.0642 H         1 <0>         0.0538
     30 H4          2.5206   -0.6839    1.7366 H         1 <0>         0.0650
     31 H5          0.8920   -0.4006    1.0765 H         1 <0>         0.0650
     32 H6          1.8580   -0.1316   -1.1913 H         1 <0>         0.0715
     33 H7          3.4866   -0.4150   -0.5313 H         1 <0>         0.0715
     34 H8          2.7835   -2.6652    0.2373 H         1 <0>         0.0897
     35 H9          1.1549   -2.3818   -0.4228 H         1 <0>         0.0898
     36 H10         0.4822  -11.2362   -0.5365 H         1 <0>         0.1631
     37 H11         2.8955  -12.8978   -2.7627 H         1 <0>         0.1294
     38 H12        -0.8879  -13.4572   -0.7978 H         1 <0>         0.1354
     39 H13        -0.8899  -16.4954   -0.1877 H         1 <0>         0.0684
     40 H14        -2.0404  -15.5527   -1.1654 H         1 <0>         0.0683
     41 H15        -1.1907  -16.9418   -1.8843 H         1 <0>         0.0716
     42 H16         1.5896  -17.5758   -1.8994 H         1 <0>         0.3862
     43 H17         4.0855  -15.7629   -2.7535 H         1 <0>         0.0688
     44 H18         2.9949  -16.3265   -4.0423 H         1 <0>         0.0727
     45 H19         3.7229  -14.7051   -4.1385 H         1 <0>         0.0691
@<TRIPOS>BOND
     1    1    2 1
     2    1   27 1
     3    1   28 1
     4    1   29 1
     5    2    3 1
     6    2   30 1
     7    2   31 1
     8    3    4 1
     9    3   32 1
    10    3   33 1
    11    4    5 1
    12    4   34 1
    13    4   35 1
    14    5    6 1
    15    6   10 1
    16    6    7 2
    17    7    8 1
    18    8    9 2
    19    9   10 1
    20    9   11 1
    21   11   12 2
    22   12   13 1
    23   12   14 1
    24   14   15 2
    25   14   25 1
    26   15   16 1
    27   15   36 1
    28   16   21 ar
    29   16   17 ar
    30   17   18 ar
    31   17   37 1
    32   18   19 ar
    33   18   24 1
    34   19   20 ar
    35   19   23 1
    36   20   21 ar
    37   20   22 1
    38   21   38 1
    39   22   39 1
    40   22   40 1
    41   22   41 1
    42   23   42 1
    43   24   43 1
    44   24   44 1
    45   24   45 1
    46   25   26 3
@<TRIPOS>MOLECULE
ZINC40099528
   57    59     0     0     0
SMALL
USER_CHARGES

@<TRIPOS>ATOM
      1 C1          0.0950    1.4110   -0.1426 C.3       1 <0>        -0.1412
      2 C2          0.0824   -0.1148   -0.0299 C.3       1 <0>        -0.0541
      3 C3          0.7843   -0.5365    1.2625 C.3       1 <0>        -0.1431
      4 C4         -1.3424   -0.6053   -0.0109 C.ar      1 <0>        -0.0869
      5 C5         -2.2048   -0.1852    0.9843 C.ar      1 <0>        -0.1201
      6 C6         -3.5118   -0.6351    1.0018 C.ar      1 <0>        -0.1146
      7 C7         -3.9564   -1.5049    0.0236 C.ar      1 <0>        -0.0752
      8 C8         -3.0942   -1.9243   -0.9722 C.ar      1 <0>        -0.0768
      9 C9         -1.7885   -1.4710   -0.9920 C.ar      1 <0>        -0.1247
     10 C10        -5.3809   -1.9962    0.0432 C.3       1 <0>         0.2627
     11 H1         -5.9577   -1.4428    0.7842 H         1 <0>         0.0667
     12 C11        -5.4165   -3.4741    0.3552 C.2       1 <0>        -0.5052
     13 C12        -5.9903   -4.0840   -0.7078 C.2       1 <0>         0.2641
     14 C13        -6.3404   -3.0664   -1.7209 C.2       1 <0>         0.5158
     15 O1         -6.8709   -3.2994   -2.7888 O.2       1 <0>        -0.5234
     16 N1         -5.9860   -1.8424   -1.2850 N.am      1 <0>        -0.6107
     17 C14        -6.1708   -0.5814   -2.0075 C.3       1 <0>         0.1393
     18 C15        -4.9375   -0.3016   -2.8686 C.3       1 <0>         0.0499
     19 O2         -4.8257   -1.3042   -3.8806 O.3       1 <0>        -0.5521
     20 O3         -6.2086   -5.4142   -0.8248 O.3       1 <0>        -0.6570
     21 C16        -4.9241   -4.1226    1.5748 C.2       1 <0>         0.5077
     22 O4         -3.9738   -4.8808    1.5196 O.2       1 <0>        -0.4789
     23 C17        -5.5811   -3.8557    2.8694 C.ar      1 <0>        -0.1716
     24 C18        -6.7453   -3.0828    2.9185 C.ar      1 <0>        -0.0242
     25 C19        -7.3549   -2.8362    4.1279 C.ar      1 <0>        -0.1671
     26 C20        -6.8144   -3.3545    5.2996 C.ar      1 <0>         0.1392
     27 C21        -5.6566   -4.1232    5.2552 C.ar      1 <0>        -0.2250
     28 C22        -5.0442   -4.3797    4.0493 C.ar      1 <0>        -0.0343
     29 O5         -7.4184   -3.1091    6.4897 O.3       1 <0>        -0.3120
     30 C23        -6.8103   -3.6717    7.6540 C.3       1 <0>         0.0849
     31 C24        -7.6143   -3.2961    8.8720 C.2       1 <0>        -0.1535
     32 C25        -7.8939   -4.2011    9.7769 C.2       1 <0>        -0.1744
     33 H2          1.1255    1.7659   -0.1563 H         1 <0>         0.0529
     34 H3         -0.4050    1.7115   -1.0633 H         1 <0>         0.0537
     35 H4         -0.4265    1.8427    0.7117 H         1 <0>         0.0555
     36 H5          0.6039   -0.5465   -0.8842 H         1 <0>         0.0728
     37 H6          0.2627   -0.1048    2.1167 H         1 <0>         0.0556
     38 H7          0.7753   -1.6236    1.3427 H         1 <0>         0.0566
     39 H8          1.8148   -0.1817    1.2488 H         1 <0>         0.0529
     40 H9         -1.8574    0.4943    1.7485 H         1 <0>         0.1136
     41 H10        -4.1854   -0.3075    1.7798 H         1 <0>         0.1172
     42 H11        -3.4415   -2.6041   -1.7362 H         1 <0>         0.1200
     43 H12        -1.1159   -1.7957   -1.7722 H         1 <0>         0.1134
     44 H13        -7.0510   -0.6543   -2.6462 H         1 <0>         0.0827
     45 H14        -6.3067    0.2302   -1.2928 H         1 <0>         0.0857
     46 H15        -5.0359    0.6778   -3.3367 H         1 <0>         0.0430
     47 H16        -4.0458   -0.3168   -2.2419 H         1 <0>         0.0571
     48 H17        -4.0641   -1.1897   -4.4653 H         1 <0>         0.3681
     49 H18        -7.1656   -2.6796    2.0090 H         1 <0>         0.1414
     50 H19        -8.2540   -2.2391    4.1668 H         1 <0>         0.1307
     51 H20        -5.2396   -4.5233    6.1676 H         1 <0>         0.1254
     52 H21        -4.1476   -4.9808    4.0151 H         1 <0>         0.1312
     53 H22        -6.7797   -4.7572    7.5595 H         1 <0>         0.0679
     54 H23        -5.7955   -3.2871    7.7558 H         1 <0>         0.0724
     55 H24        -7.9601   -2.2808    8.9988 H         1 <0>         0.1192
     56 H25        -7.5482   -5.2164    9.6502 H         1 <0>         0.0997
     57 H26        -8.4702   -3.9319   10.6498 H         1 <0>         0.1067
@<TRIPOS>BOND
     1    1    2 1
     2    1   33 1
     3    1   34 1
     4    1   35 1
     5    2    3 1
     6    2    4 1
     7    2   36 1
     8    3   37 1
     9    3   38 1
    10    3   39 1
    11    4    9 ar
    12    4    5 ar
    13    5    6 ar
    14    5   40 1
    15    6    7 ar
    16    6   41 1
    17    7    8 ar
    18    7   10 1
    19    8    9 ar
    20    8   42 1
    21    9   43 1
    22   10   11 1
    23   10   16 1
    24   10   12 1
    25   12   13 2
    26   12   21 1
    27   13   14 1
    28   13   20 1
    29   14   15 2
    30   14   16 am
    31   16   17 1
    32   17   18 1
    33   17   44 1
    34   17   45 1
    35   18   19 1
    36   18   46 1
    37   18   47 1
    38   19   48 1
    39   21   22 2
    40   21   23 1
    41   23   28 ar
    42   23   24 ar
    43   24   25 ar
    44   24   49 1
    45   25   26 ar
    46   25   50 1
    47   26   27 ar
    48   26   29 1
    49   27   28 ar
    50   27   51 1
    51   28   52 1
    52   29   30 1
    53   30   31 1
    54   30   53 1
    55   30   54 1
    56   31   32 2
    57   31   55 1
    58   32   56 1
    59   32   57 1
@<TRIPOS>MOLECULE
ZINC49218190
   58    59     0     0     0
SMALL
USER_CHARGES

@<TRIPOS>ATOM
      1 C1          0.6320    1.6205   -0.9475 C.3       1 <0>        -0.1088
      2 C2          0.6087    0.1234   -0.7762 C.ar      1 <0>        -0.0690
      3 C3          0.5407   -0.6893   -1.8877 C.ar      1 <0>        -0.1156
      4 C4          0.5193   -2.0698   -1.7372 C.ar      1 <0>         0.0442
      5 C5          0.5676   -2.6220   -0.4460 C.ar      1 <0>        -0.1169
      6 C6          0.6362   -1.7891    0.6696 C.ar      1 <0>        -0.0455
      7 C7          0.6616   -0.4225    0.4979 C.ar      1 <0>        -0.1050
      8 C8          0.7419    0.4833    1.6996 C.3       1 <0>        -0.0534
      9 C9         -0.4164    0.1736    2.6501 C.3       1 <0>        -0.1474
     10 C10         2.0704    0.2543    2.4231 C.3       1 <0>        -0.1427
     11 C11         0.5283   -4.0765   -0.6396 C.2       1 <0>        -0.1373
     12 C12         0.4629   -4.2754   -1.9631 C.2       1 <0>         0.0083
     13 O1          0.4576   -3.0964   -2.6092 O.3       1 <0>        -0.2053
     14 C13         0.5564   -5.1335    0.4342 C.3       1 <0>        -0.0654
     15 C14        -0.8419   -5.3682    0.9447 C.2       1 <0>         0.3670
     16 O2         -1.3266   -4.6152    1.9467 O.3       1 <0>        -0.6520
     17 C15        -1.6151   -6.3445    0.3901 C.2       1 <0>        -0.4226
     18 C16        -2.8866   -6.6644    0.9660 C.1       1 <0>         0.3186
     19 N1         -3.8952   -6.9182    1.4228 N.1       1 <0>        -0.5409
     20 C17        -1.1435   -7.0688   -0.7991 C.2       1 <0>         0.6010
     21 O3         -0.0555   -6.8094   -1.2777 O.2       1 <0>        -0.5850
     22 N2         -1.9166   -8.0203   -1.3591 N.am      1 <0>        -0.7464
     23 C18        -1.4467   -8.7421   -2.5442 C.3       1 <0>         0.1304
     24 C19        -2.5056   -9.7589   -2.9752 C.3       1 <0>        -0.1320
     25 C20        -2.0148  -10.5128   -4.2128 C.3       1 <0>         0.0678
     26 O4         -3.0038  -11.4625   -4.6154 O.3       1 <0>        -0.3836
     27 C21        -2.6425  -12.2242   -5.7691 C.3       1 <0>         0.0803
     28 C22        -3.2955  -13.6058   -5.6931 C.3       1 <0>        -0.1500
     29 C23        -3.1238  -11.5013   -7.0288 C.3       1 <0>        -0.1759
     30 H1          1.6642    1.9705   -0.9446 H         1 <0>         0.0678
     31 H2          0.1612    1.8852   -1.8943 H         1 <0>         0.0629
     32 H3          0.0873    2.0885   -0.1276 H         1 <0>         0.0702
     33 H4          0.5037   -0.2528   -2.8749 H         1 <0>         0.1233
     34 H5          0.6733   -2.2128    1.6623 H         1 <0>         0.1282
     35 H6          0.6786    1.5224    1.3763 H         1 <0>         0.0793
     36 H7         -0.3532   -0.8654    2.9734 H         1 <0>         0.0632
     37 H8         -0.3584    0.8288    3.5192 H         1 <0>         0.0527
     38 H9         -1.3629    0.3368    2.1346 H         1 <0>         0.0544
     39 H10         2.1336   -0.7847    2.7464 H         1 <0>         0.0580
     40 H11         2.8956    0.4750    1.7460 H         1 <0>         0.0529
     41 H12         2.1285    0.9095    3.2923 H         1 <0>         0.0537
     42 H13         0.4212   -5.2428   -2.4415 H         1 <0>         0.2225
     43 H14         0.9527   -6.0609    0.0207 H         1 <0>         0.1235
     44 H15         1.1918   -4.8008    1.2549 H         1 <0>         0.0638
     45 H16        -2.7840   -8.2271   -0.9775 H         1 <0>         0.3944
     46 H17        -1.2711   -8.0347   -3.3547 H         1 <0>         0.0618
     47 H18        -0.5182   -9.2622   -2.3084 H         1 <0>         0.0628
     48 H19        -2.6811  -10.4663   -2.1647 H         1 <0>         0.0755
     49 H20        -3.4340   -9.2388   -3.2109 H         1 <0>         0.0753
     50 H21        -1.8393   -9.8053   -5.0233 H         1 <0>         0.0510
     51 H22        -1.0864  -11.0329   -3.9771 H         1 <0>         0.0515
     52 H23        -1.5589  -12.3361   -5.8060 H         1 <0>         0.0594
     53 H24        -4.3791  -13.4940   -5.6563 H         1 <0>         0.0629
     54 H25        -3.0200  -14.1869   -6.5732 H         1 <0>         0.0673
     55 H26        -2.9527  -14.1208   -4.7957 H         1 <0>         0.0611
     56 H27        -2.6586  -10.5171   -7.0830 H         1 <0>         0.0572
     57 H28        -2.8482  -12.0824   -7.9089 H         1 <0>         0.0633
     58 H29        -4.2074  -11.3895   -6.9919 H         1 <0>         0.0632
@<TRIPOS>BOND
     1    1    2 1
     2    1   30 1
     3    1   31 1
     4    1   32 1
     5    2    7 ar
     6    2    3 ar
     7    3    4 ar
     8    3   33 1
     9    4   13 1
    10    4    5 ar
    11    5    6 ar
    12    5   11 1
    13    6    7 ar
    14    6   34 1
    15    7    8 1
    16    8    9 1
    17    8   10 1
    18    8   35 1
    19    9   36 1
    20    9   37 1
    21    9   38 1
    22   10   39 1
    23   10   40 1
    24   10   41 1
    25   11   12 2
    26   11   14 1
    27   12   13 1
    28   12   42 1
    29   14   15 1
    30   14   43 1
    31   14   44 1
    32   15   16 1
    33   15   17 2
    34   17   18 1
    35   17   20 1
    36   18   19 3
    37   20   21 2
    38   20   22 am
    39   22   23 1
    40   22   45 1
    41   23   24 1
    42   23   46 1
    43   23   47 1
    44   24   25 1
    45   24   48 1
    46   24   49 1
    47   25   26 1
    48   25   50 1
    49   25   51 1
    50   26   27 1
    51   27   28 1
    52   27   29 1
    53   27   52 1
    54   28   53 1
    55   28   54 1
    56   28   55 1
    57   29   56 1
    58   29   57 1
    59   29   58 1
@<TRIPOS>MOLECULE
ZINC13091417
   52    53     0     0     0
SMALL
USER_CHARGES
5-(diethylsulfamoyl)-2-[2-[4-(trifluoromethyl)phenyl]ethylamino]benzoic acid
@<TRIPOS>ATOM
      1 C1          3.3854   10.8785    7.8142 C.3       1 <0>        -0.1715
      2 C2          3.4553    9.8213    6.7103 C.3       1 <0>         0.1183
      3 N1          2.6790    8.6452    7.1107 N.pl3     1 <0>        -0.9995
      4 C3          3.2944    7.6110    7.9462 C.3       1 <0>         0.1131
      5 C4          4.0556    6.6244    7.0584 C.3       1 <0>        -0.1786
      6 S1          1.1059    8.4847    6.6189 S.o2      1 <0>         2.6949
      7 O1          0.6306    9.7954    6.3442 O.2       1 <0>        -0.9597
      8 O2          0.4726    7.6258    7.5572 O.2       1 <0>        -0.9723
      9 C5          1.1259    7.6238    5.0817 C.ar      1 <0>        -0.7529
     10 C6          1.0574    6.2393    5.0660 C.ar      1 <0>         0.0253
     11 C7          1.0721    5.5523    3.8698 C.ar      1 <0>        -0.2398
     12 C8          1.1564    6.2468    2.6691 C.ar      1 <0>         0.2990
     13 C9          1.2317    7.6488    2.6817 C.ar      1 <0>        -0.2172
     14 C10         1.2090    8.3300    3.9022 C.ar      1 <0>         0.0688
     15 C11         1.3280    8.3972    1.4168 C.2       1 <0>         0.5045
     16 O3          1.2411    7.8110    0.3558 O.co2     1 <0>        -0.6376
     17 N2          1.1718    5.5577    1.4640 N.pl3     1 <0>        -0.7180
     18 C12         1.2257    4.0937    1.4579 C.3       1 <0>         0.1215
     19 C13         1.2323    3.5897    0.0133 C.3       1 <0>        -0.0992
     20 C14         1.2877    2.0837    0.0070 C.ar      1 <0>        -0.0394
     21 C15         0.1169    1.3489    0.0141 C.ar      1 <0>        -0.1152
     22 C16         0.1678   -0.0325    0.0079 C.ar      1 <0>        -0.0679
     23 C17         1.3895   -0.6791   -0.0059 C.ar      1 <0>        -0.1910
     24 C18         2.5604    0.0557   -0.0130 C.ar      1 <0>        -0.0680
     25 C19         2.5095    1.4371   -0.0068 C.ar      1 <0>        -0.1152
     26 C20         1.4450   -2.1850   -0.0126 C.3       1 <0>         0.5091
     27 F1          1.4502   -2.6456   -1.3336 F         1 <0>        -0.1779
     28 F2          2.6095   -2.6117    0.6346 F         1 <0>        -0.1779
     29 F3          0.3266   -2.6959    0.6549 F         1 <0>        -0.1779
     30 H1          2.3467   11.1666    7.9761 H         1 <0>         0.0629
     31 H2          3.7968   10.4684    8.7365 H         1 <0>         0.0550
     32 H3          3.9630   11.7535    7.5163 H         1 <0>         0.0667
     33 H4          4.4940    9.5332    6.5484 H         1 <0>         0.0773
     34 H5          3.0440   10.2314    5.7880 H         1 <0>         0.0866
     35 H6          3.9860    8.0756    8.6490 H         1 <0>         0.0788
     36 H7          2.5184    7.0798    8.4973 H         1 <0>         0.0902
     37 H8          4.5135    5.8549    7.6800 H         1 <0>         0.0645
     38 H9          3.3641    6.1598    6.3556 H         1 <0>         0.0609
     39 H10         4.8316    7.1556    6.5073 H         1 <0>         0.0604
     40 H11         0.9925    5.6949    5.9965 H         1 <0>         0.1281
     41 H12         1.0184    4.4737    3.8665 H         1 <0>         0.1228
     42 H13         1.2617    9.4086    3.9205 H         1 <0>         0.1432
     43 H14         1.1468    6.0457    0.6260 H         1 <0>         0.4255
     44 H15         0.3541    3.6959    1.9776 H         1 <0>         0.0605
     45 H16         2.1328    3.7615    1.9628 H         1 <0>         0.0603
     46 H17         2.1039    3.9875   -0.5064 H         1 <0>         0.0882
     47 H18         0.3252    3.9220   -0.4916 H         1 <0>         0.0878
     48 H19        -0.8377    1.8541    0.0199 H         1 <0>         0.1370
     49 H20        -0.7470   -0.6066    0.0134 H         1 <0>         0.1355
     50 H21         3.5149   -0.4494   -0.0230 H         1 <0>         0.1355
     51 H22         3.4242    2.0112   -0.0120 H         1 <0>         0.1369
     52 O4          1.5124    9.7320    1.4360 O.co2     1 <0>        -0.7423
@<TRIPOS>BOND
     1    1    2 1
     2    1   30 1
     3    1   31 1
     4    1   32 1
     5    2    3 1
     6    2   33 1
     7    2   34 1
     8    3    4 1
     9    3    6 1
    10    4    5 1
    11    4   35 1
    12    4   36 1
    13    5   37 1
    14    5   38 1
    15    5   39 1
    16    6    7 2
    17    6    8 2
    18    6    9 1
    19    9   14 ar
    20    9   10 ar
    21   10   11 ar
    22   10   40 1
    23   11   12 ar
    24   11   41 1
    25   12   13 ar
    26   12   17 1
    27   13   14 ar
    28   13   15 1
    29   14   42 1
    30   15   16 2
    31   15   52 1
    32   17   18 1
    33   17   43 1
    34   18   19 1
    35   18   44 1
    36   18   45 1
    37   19   20 1
    38   19   46 1
    39   19   47 1
    40   20   25 ar
    41   20   21 ar
    42   21   22 ar
    43   21   48 1
    44   22   23 ar
    45   22   49 1
    46   23   24 ar
    47   23   26 1
    48   24   25 ar
    49   24   50 1
    50   25   51 1
    51   26   27 1
    52   26   28 1
    53   26   29 1
@<TRIPOS>MOLECULE
ZINC25176015
   37    38     0     0     0
SMALL
USER_CHARGES
2-[(N'Z)-N'-[3-(4-methoxyphenyl)-3-oxo-1-(trifluoromethyl)propylidene]hydrazino]thiazole-4-carboxylic acid
@<TRIPOS>ATOM
      1 C1          1.9531   10.4153   -0.3512 C.3       1 <0>         0.0208
      2 O1          2.7619    9.6524    0.5466 O.3       1 <0>        -0.3134
      3 C2          2.5872    8.3071    0.5410 C.ar      1 <0>         0.1569
      4 C3          3.3431    7.5067    1.3909 C.ar      1 <0>        -0.1649
      5 C4          3.1701    6.1464    1.3896 C.ar      1 <0>        -0.0186
      6 C5          2.2303    5.5635    0.5304 C.ar      1 <0>        -0.1999
      7 C6          1.4759    6.3735   -0.3275 C.ar      1 <0>        -0.0308
      8 C7          1.6526    7.7332   -0.3142 C.ar      1 <0>        -0.2222
      9 C8          2.0408    4.1072    0.5248 C.2       1 <0>         0.3940
     10 O2          2.6989    3.4071    1.2652 O.2       1 <0>        -0.4272
     11 C9          1.0288    3.4826   -0.4008 C.3       1 <0>        -0.1033
     12 C10         1.0307    1.9875   -0.2117 C.2       1 <0>         0.0561
     13 N1         -0.0073    1.3998    0.2531 N.2       1 <0>        -0.2559
     14 N2          0.0831    0.0807    0.7165 N.2       1 <0>        -0.4358
     15 C11        -1.0613   -0.5990    1.0983 C.2       1 <0>         0.3851
     16 N3         -1.1844   -1.8309    1.5503 N.pl3     1 <0>        -0.5457
     17 C12        -2.3927   -2.3023    1.8696 C.2       1 <0>         0.0538
     18 C13        -3.4854   -1.4911    1.7089 C.2       1 <0>        -0.2108
     19 S1         -2.7562   -0.0380    1.0995 S.3       1 <0>         0.0320
     20 C14        -2.5485   -3.6720    2.3807 C.2       1 <0>         0.5098
     21 O3         -3.6532   -4.0929    2.6645 O.co2     1 <0>        -0.5976
     22 O4         -1.4663   -4.4612    2.5348 O.co2     1 <0>        -0.7360
     23 C15         2.2544    1.1842   -0.5699 C.3       1 <0>         0.4716
     24 F1          1.9056   -0.1645   -0.6991 F         1 <0>        -0.1624
     25 F2          2.7789    1.6483   -1.7810 F         1 <0>        -0.1914
     26 F3          3.2148    1.3230    0.4379 F         1 <0>        -0.1661
     27 H1          2.1945   11.4832   -0.2448 H         1 <0>         0.1032
     28 H2          0.8909   10.2541   -0.1149 H         1 <0>         0.0600
     29 H3          2.1513   10.0958   -1.3849 H         1 <0>         0.0598
     30 H4          4.0678    7.9572    2.0529 H         1 <0>         0.1368
     31 H5          3.7572    5.5258    2.0502 H         1 <0>         0.1426
     32 H6          0.7531    5.9284   -0.9951 H         1 <0>         0.1384
     33 H7          1.0679    8.3592   -0.9720 H         1 <0>         0.1350
     34 H8          0.0288    3.8798   -0.1724 H         1 <0>         0.1304
     35 H9          1.2888    3.7208   -1.4428 H         1 <0>         0.1229
     36 H10        -4.5259   -1.7004    1.9088 H         1 <0>         0.2071
     37 H11        -0.2940   -2.4668    1.6634 H         1 <0>         0.4660
@<TRIPOS>BOND
     1    1    2 1
     2    1   27 1
     3    1   28 1
     4    1   29 1
     5    2    3 1
     6    3    8 ar
     7    3    4 ar
     8    4    5 ar
     9    4   30 1
    10    5    6 ar
    11    5   31 1
    12    6    7 ar
    13    6    9 1
    14    7    8 ar
    15    7   32 1
    16    8   33 1
    17    9   10 2
    18    9   11 1
    19   11   12 1
    20   11   34 1
    21   11   35 1
    22   12   13 2
    23   12   23 1
    24   13   14 1
    25   14   15 2
    26   15   19 1
    27   15   16 1
    28   16   17 1
    29   16   37 1
    30   17   18 2
    31   17   20 1
    32   18   19 1
    33   18   36 1
    34   20   21 2
    35   20   22 1
    36   23   24 1
    37   23   25 1
    38   23   26 1
@<TRIPOS>MOLECULE
ZINC40048647
   56    58     0     0     0
SMALL
USER_CHARGES

@<TRIPOS>ATOM
      1 C1         -0.2406    1.4361    0.0319 C.3       1 <0>        -0.1443
      2 C2         -0.1115   -0.0879   -0.0114 C.3       1 <0>        -0.0815
      3 C3          0.6413   -0.5630    1.2046 C.ar      1 <0>        -0.0912
      4 C4          2.0189   -0.6711    1.1660 C.ar      1 <0>        -0.1223
      5 C5          2.7095   -1.1069    2.2814 C.ar      1 <0>        -0.1137
      6 C6          2.0225   -1.4342    3.4355 C.ar      1 <0>        -0.0761
      7 C7          0.6450   -1.3252    3.4743 C.ar      1 <0>        -0.0777
      8 C8         -0.0452   -0.8853    2.3603 C.ar      1 <0>        -0.1187
      9 C9          2.7752   -1.9102    4.6511 C.3       1 <0>         0.2630
     10 H1          3.8462   -1.7665    4.5084 H         1 <0>         0.0685
     11 C10         2.4766   -3.3687    4.9088 C.2       1 <0>        -0.4997
     12 C11         1.9080   -3.4403    6.1348 C.2       1 <0>         0.2614
     13 C12         1.8153   -2.0808    6.7072 C.2       1 <0>         0.5113
     14 O1          1.3513   -1.8136    7.7978 O.2       1 <0>        -0.5353
     15 N1          2.3226   -1.1819    5.8422 N.am      1 <0>        -0.6121
     16 C13         2.4076    0.2656    6.0516 C.3       1 <0>         0.1435
     17 C14         1.1332    0.9321    5.5296 C.3       1 <0>        -0.1466
     18 C15         1.2219    2.4438    5.7484 C.3       1 <0>         0.0818
     19 O2          0.0316    3.0663    5.2608 O.3       1 <0>        -0.5718
     20 O3          1.4903   -4.5759    6.7401 O.3       1 <0>        -0.6552
     21 C16         2.7502   -4.4905    4.0049 C.2       1 <0>         0.5076
     22 O4          1.8285   -5.1207    3.5208 O.2       1 <0>        -0.4764
     23 C17         4.1436   -4.8552    3.6820 C.ar      1 <0>        -0.1682
     24 C18         5.2043   -4.2139    4.3295 C.ar      1 <0>        -0.0288
     25 C19         6.5021   -4.5570    4.0255 C.ar      1 <0>        -0.2211
     26 C20         6.7593   -5.5399    3.0759 C.ar      1 <0>         0.1370
     27 C21         5.7078   -6.1796    2.4294 C.ar      1 <0>        -0.1352
     28 C22         4.4065   -5.8468    2.7322 C.ar      1 <0>        -0.0370
     29 C23         5.9925   -7.2433    1.4005 C.3       1 <0>        -0.0997
     30 O5          8.0403   -5.8752    2.7790 O.3       1 <0>        -0.3156
     31 C24         9.0723   -5.1784    3.4799 C.3       1 <0>         0.0270
     32 H2          0.7528    1.8847    0.0425 H         1 <0>         0.0533
     33 H3         -0.7851    1.7797   -0.8476 H         1 <0>         0.0522
     34 H4         -0.7814    1.7295    0.9316 H         1 <0>         0.0561
     35 H5         -1.1048   -0.5365   -0.0220 H         1 <0>         0.0676
     36 H6          0.4293   -0.3813   -0.9112 H         1 <0>         0.0667
     37 H7          2.5556   -0.4154    0.2644 H         1 <0>         0.1139
     38 H8          3.7857   -1.1921    2.2511 H         1 <0>         0.1166
     39 H9          0.1082   -1.5812    4.3758 H         1 <0>         0.1154
     40 H10        -1.1211   -0.7966    2.3918 H         1 <0>         0.1146
     41 H11         2.5161    0.4729    7.1162 H         1 <0>         0.0780
     42 H12         3.2702    0.6604    5.5148 H         1 <0>         0.0745
     43 H13         1.0246    0.7248    4.4650 H         1 <0>         0.0832
     44 H14         0.2706    0.5373    6.0664 H         1 <0>         0.0720
     45 H15         1.3304    2.6511    6.8130 H         1 <0>         0.0444
     46 H16         2.0844    2.8386    5.2115 H         1 <0>         0.0438
     47 H17         0.0184    4.0273    5.3671 H         1 <0>         0.3747
     48 H18         5.0054   -3.4503    5.0669 H         1 <0>         0.1361
     49 H19         7.3219   -4.0620    4.5249 H         1 <0>         0.1276
     50 H20         3.5901   -6.3476    2.2331 H         1 <0>         0.1354
     51 H21         6.0445   -8.2164    1.8887 H         1 <0>         0.0646
     52 H22         5.1956   -7.2520    0.6569 H         1 <0>         0.0636
     53 H23         6.9433   -7.0307    0.9117 H         1 <0>         0.0660
     54 H24         8.9650   -5.3513    4.5507 H         1 <0>         0.0555
     55 H25        10.0453   -5.5416    3.1490 H         1 <0>         0.0962
     56 H26         8.9940   -4.1108    3.2746 H         1 <0>         0.0547
@<TRIPOS>BOND
     1    1    2 1
     2    1   32 1
     3    1   33 1
     4    1   34 1
     5    2    3 1
     6    2   35 1
     7    2   36 1
     8    3    8 ar
     9    3    4 ar
    10    4    5 ar
    11    4   37 1
    12    5    6 ar
    13    5   38 1
    14    6    7 ar
    15    6    9 1
    16    7    8 ar
    17    7   39 1
    18    8   40 1
    19    9   10 1
    20    9   15 1
    21    9   11 1
    22   11   12 2
    23   11   21 1
    24   12   13 1
    25   12   20 1
    26   13   14 2
    27   13   15 am
    28   15   16 1
    29   16   17 1
    30   16   41 1
    31   16   42 1
    32   17   18 1
    33   17   43 1
    34   17   44 1
    35   18   19 1
    36   18   45 1
    37   18   46 1
    38   19   47 1
    39   21   22 2
    40   21   23 1
    41   23   28 ar
    42   23   24 ar
    43   24   25 ar
    44   24   48 1
    45   25   26 ar
    46   25   49 1
    47   26   27 ar
    48   26   30 1
    49   27   28 ar
    50   27   29 1
    51   28   50 1
    52   29   51 1
    53   29   52 1
    54   29   53 1
    55   30   31 1
    56   31   54 1
    57   31   55 1
    58   31   56 1
@<TRIPOS>MOLECULE
ZINC40094670
   50    52     0     0     0
SMALL
USER_CHARGES

@<TRIPOS>ATOM
      1 C1          0.0083    1.8627    0.7202 C.3       1 <0>        -0.1502
      2 C2         -0.0120    0.3932    1.1458 C.3       1 <0>        -0.1191
      3 C3         -1.3405   -0.2404    0.7281 C.3       1 <0>        -0.1450
      4 C4         -1.3609   -1.7099    1.1538 C.3       1 <0>         0.1379
      5 N1         -2.6330   -2.3165    0.7538 N.am      1 <0>        -0.6113
      6 C5         -3.8596   -2.3604    1.5584 C.3       1 <0>         0.2629
      7 H1         -3.6806   -2.9055    2.4852 H         1 <0>         0.0693
      8 C6         -4.8875   -3.0841    0.7203 C.2       1 <0>        -0.5074
      9 C7         -4.2814   -3.4111   -0.4448 C.2       1 <0>         0.2672
     10 C8         -2.8851   -2.9269   -0.4183 C.2       1 <0>         0.5110
     11 O1         -2.0828   -3.0625   -1.3206 O.2       1 <0>        -0.5330
     12 O2         -4.8626   -4.0722   -1.4722 O.3       1 <0>        -0.6505
     13 C9         -6.2740   -3.3763    1.0968 C.2       1 <0>         0.5051
     14 O3         -7.1917   -2.8541    0.4919 O.2       1 <0>        -0.4701
     15 C10        -6.5571   -4.3048    2.2106 C.ar      1 <0>        -0.1463
     16 C11        -5.5067   -4.9405    2.8777 C.ar      1 <0>        -0.0381
     17 C12        -5.7766   -5.8056    3.9158 C.ar      1 <0>        -0.1696
     18 C13        -7.0878   -6.0458    4.2988 C.ar      1 <0>         0.1070
     19 C14        -8.1343   -5.4175    3.6402 C.ar      1 <0>        -0.1688
     20 C15        -7.8758   -4.5461    2.6045 C.ar      1 <0>        -0.0474
     21 F1         -7.3466   -6.8952    5.3170 F         1 <0>        -0.1433
     22 C16        -4.3296   -0.9614    1.8632 C.ar      1 <0>        -0.0399
     23 C17        -4.4238   -0.0287    0.8471 C.ar      1 <0>        -0.1006
     24 C18        -4.8544    1.2559    1.1216 C.ar      1 <0>        -0.1087
     25 C19        -5.1933    1.6110    2.4174 C.ar      1 <0>         0.0639
     26 C20        -5.0989    0.6721    3.4401 C.ar      1 <0>         0.0980
     27 C21        -4.6711   -0.6152    3.1573 C.ar      1 <0>        -0.1879
     28 O4         -5.4303    1.0158    4.7135 O.3       1 <0>        -0.3117
     29 C22        -5.4289   -0.0288    5.6886 C.3       1 <0>         0.0260
     30 O5         -5.6166    2.8745    2.6892 O.3       1 <0>        -0.4898
     31 H2          0.9548    2.3141    1.0178 H         1 <0>         0.0502
     32 H3         -0.1014    1.9289   -0.3623 H         1 <0>         0.0531
     33 H4         -0.8139    2.3919    1.2018 H         1 <0>         0.0539
     34 H5          0.8102   -0.1360    0.6642 H         1 <0>         0.0602
     35 H6          0.0977    0.3269    2.2283 H         1 <0>         0.0593
     36 H7         -2.1628    0.2888    1.2097 H         1 <0>         0.0740
     37 H8         -1.4502   -0.1741   -0.3543 H         1 <0>         0.0653
     38 H9         -0.5386   -2.2391    0.6722 H         1 <0>         0.0773
     39 H10        -1.2512   -1.7761    2.2362 H         1 <0>         0.0721
     40 H11        -4.4853   -4.7545    2.5801 H         1 <0>         0.1444
     41 H12        -4.9655   -6.2978    4.4320 H         1 <0>         0.1356
     42 H13        -9.1534   -5.6082    3.9426 H         1 <0>         0.1345
     43 H14        -8.6912   -4.0537    2.0954 H         1 <0>         0.1396
     44 H15        -4.1600   -0.3042   -0.1633 H         1 <0>         0.1245
     45 H16        -4.9265    1.9829    0.3261 H         1 <0>         0.1312
     46 H17        -4.6006   -1.3469    3.9485 H         1 <0>         0.1289
     47 H18        -5.7923    0.3612    6.6394 H         1 <0>         0.0960
     48 H19        -6.0791   -0.8377    5.3554 H         1 <0>         0.0556
     49 H20        -4.4144   -0.4067    5.8148 H         1 <0>         0.0534
     50 H21        -6.5737    2.9926    2.6174 H         1 <0>         0.3811
@<TRIPOS>BOND
     1    1    2 1
     2    1   31 1
     3    1   32 1
     4    1   33 1
     5    2    3 1
     6    2   34 1
     7    2   35 1
     8    3    4 1
     9    3   36 1
    10    3   37 1
    11    4    5 1
    12    4   38 1
    13    4   39 1
    14    5   10 am
    15    5    6 1
    16    6    7 1
    17    6    8 1
    18    6   22 1
    19    8    9 2
    20    8   13 1
    21    9   10 1
    22    9   12 1
    23   10   11 2
    24   13   14 2
    25   13   15 1
    26   15   20 ar
    27   15   16 ar
    28   16   17 ar
    29   16   40 1
    30   17   18 ar
    31   17   41 1
    32   18   19 ar
    33   18   21 1
    34   19   20 ar
    35   19   42 1
    36   20   43 1
    37   22   27 ar
    38   22   23 ar
    39   23   24 ar
    40   23   44 1
    41   24   25 ar
    42   24   45 1
    43   25   26 ar
    44   25   30 1
    45   26   27 ar
    46   26   28 1
    47   27   46 1
    48   28   29 1
    49   29   47 1
    50   29   48 1
    51   29   49 1
    52   30   50 1
@<TRIPOS>MOLECULE
ZINC44599107
   58    61     0     0     0
SMALL
USER_CHARGES

@<TRIPOS>ATOM
      1 C1         -0.0187    1.5258    0.0104 C.3       1 <0>        -0.1501
      2 C2          0.0021   -0.0041    0.0020 C.3       1 <0>         0.0528
      3 O1          0.6709   -0.4649   -1.1737 O.3       1 <0>        -0.3080
      4 C3          0.7768   -1.8109   -1.3363 C.ar      1 <0>         0.0924
      5 C4          0.2435   -2.6690   -0.3879 C.ar      1 <0>        -0.1703
      6 C5          0.3516   -4.0370   -0.5549 C.ar      1 <0>        -0.1028
      7 C6          0.9916   -4.5523   -1.6668 C.ar      1 <0>        -0.0662
      8 C7          1.5263   -3.7019   -2.6164 C.ar      1 <0>        -0.1674
      9 C8          1.4160   -2.3297   -2.4582 C.ar      1 <0>         0.0994
     10 O2          1.9361   -1.4917   -3.3945 O.3       1 <0>        -0.3076
     11 C9          2.5780   -2.0947   -4.5199 C.3       1 <0>         0.0517
     12 C10         3.0962   -1.0022   -5.4574 C.3       1 <0>        -0.1492
     13 C11         1.1070   -6.0444   -1.8436 C.3       1 <0>        -0.0893
     14 C12        -0.1065   -6.5615   -2.6188 C.3       1 <0>         0.1366
     15 N1          0.0057   -8.0121   -2.7907 N.am      1 <0>        -0.5735
     16 C13         0.6079   -8.6413   -3.8234 C.2       1 <0>         0.5098
     17 O3          1.1563   -8.1263   -4.7819 O.2       1 <0>        -0.5183
     18 C14         0.4626  -10.0772   -3.5479 C.2       1 <0>        -0.0051
     19 C15         0.9208  -11.1232   -4.3237 C.2       1 <0>        -0.0123
     20 C16         0.6967  -12.4608   -3.9134 C.2       1 <0>        -0.1443
     21 C17         0.9554  -12.9993   -2.6708 C.2       1 <0>         0.1366
     22 N2          0.6074  -14.3105   -2.6649 N.pl3     1 <0>        -0.5858
     23 H1          0.6963  -14.9024   -1.9016 H         1 <0>         0.4120
     24 C18         0.1087  -14.6848   -3.8962 C.ar      1 <0>         0.0881
     25 C19         0.1336  -13.5548   -4.7289 C.ar      1 <0>        -0.0774
     26 C20        -0.3226  -13.6434   -6.0409 C.ar      1 <0>        -0.0744
     27 C21        -0.8022  -14.8446   -6.5172 C.ar      1 <0>        -0.1489
     28 C22        -0.8311  -15.9613   -5.6952 C.ar      1 <0>        -0.1117
     29 C23        -0.3749  -15.8894   -4.3967 C.ar      1 <0>        -0.1289
     30 C24         1.5358  -12.2479   -1.5005 C.3       1 <0>        -0.0855
     31 N3         -0.2195  -10.1658   -2.3648 N.2       1 <0>        -0.5419
     32 C25        -0.4775   -8.9621   -1.9276 C.2       1 <0>         0.4946
     33 S1         -1.3361   -8.6065   -0.4306 S.3       1 <0>        -0.7755
     34 H2          1.0039    1.9031    0.0027 H         1 <0>         0.0645
     35 H3         -0.5459    1.8868   -0.8726 H         1 <0>         0.0650
     36 H4         -0.5289    1.8773    0.9072 H         1 <0>         0.0758
     37 H5          0.5293   -0.3651    0.8851 H         1 <0>         0.0598
     38 H6         -1.0205   -0.3814    0.0098 H         1 <0>         0.0606
     39 H7         -0.2563   -2.2690    0.4819 H         1 <0>         0.1331
     40 H8         -0.0645   -4.7047    0.1850 H         1 <0>         0.1348
     41 H9          2.0261   -4.1070   -3.4839 H         1 <0>         0.1336
     42 H10         3.4131   -2.7058   -4.1775 H         1 <0>         0.0604
     43 H11         1.8634   -2.7219   -5.0528 H         1 <0>         0.0620
     44 H12         2.2611   -0.3911   -5.7998 H         1 <0>         0.0648
     45 H13         3.8108   -0.3750   -4.9244 H         1 <0>         0.0642
     46 H14         3.5858   -1.4622   -6.3157 H         1 <0>         0.0766
     47 H15         2.0171   -6.2754   -2.3972 H         1 <0>         0.0678
     48 H16         1.1449   -6.5244   -0.8657 H         1 <0>         0.0877
     49 H17        -1.0166   -6.3306   -2.0652 H         1 <0>         0.0998
     50 H18        -0.1444   -6.0816   -3.5967 H         1 <0>         0.0738
     51 H19         1.4502  -10.9219   -5.2433 H         1 <0>         0.1266
     52 H20        -0.3013  -12.7750   -6.6826 H         1 <0>         0.1204
     53 H21        -1.1572  -14.9165   -7.5346 H         1 <0>         0.1185
     54 H22        -1.2088  -16.8978   -6.0782 H         1 <0>         0.1197
     55 H23        -0.4034  -16.7647   -3.7646 H         1 <0>         0.1151
     56 H24         0.7283  -11.8133   -0.9112 H         1 <0>         0.1055
     57 H25         2.1115  -12.9331   -0.8782 H         1 <0>         0.0532
     58 H26         2.1873  -11.4539   -1.8655 H         1 <0>         0.0768
@<TRIPOS>BOND
     1    1    2 1
     2    1   34 1
     3    1   35 1
     4    1   36 1
     5    2    3 1
     6    2   37 1
     7    2   38 1
     8    3    4 1
     9    4    9 ar
    10    4    5 ar
    11    5    6 ar
    12    5   39 1
    13    6    7 ar
    14    6   40 1
    15    7    8 ar
    16    7   13 1
    17    8    9 ar
    18    8   41 1
    19    9   10 1
    20   10   11 1
    21   11   12 1
    22   11   42 1
    23   11   43 1
    24   12   44 1
    25   12   45 1
    26   12   46 1
    27   13   14 1
    28   13   47 1
    29   13   48 1
    30   14   15 1
    31   14   49 1
    32   14   50 1
    33   15   32 1
    34   15   16 am
    35   16   17 2
    36   16   18 1
    37   18   19 2
    38   18   31 1
    39   19   20 1
    40   19   51 1
    41   20   25 1
    42   20   21 2
    43   21   22 1
    44   21   30 1
    45   22   23 1
    46   22   24 1
    47   24   29 ar
    48   24   25 ar
    49   25   26 ar
    50   26   27 ar
    51   26   52 1
    52   27   28 ar
    53   27   53 1
    54   28   29 ar
    55   28   54 1
    56   29   55 1
    57   30   56 1
    58   30   57 1
    59   30   58 1
    60   31   32 2
    61   32   33 1
@<TRIPOS>MOLECULE
ZINC05446158
   52    54     0     0     0
SMALL
USER_CHARGES
4-[3-[hydroxy-(p-tolyl)methylene]-2-(4-methoxyphenyl)-4,5-dioxo-pyrrolidin-1-yl]butanoic acid
@<TRIPOS>ATOM
      1 C1          5.7777   -2.2607    6.8521 C.3       1 <0>        -0.1211
      2 C2          5.7805   -2.5641    5.3760 C.ar      1 <0>        -0.0554
      3 C3          4.7422   -3.2919    4.8208 C.ar      1 <0>        -0.1242
      4 C4          4.7376   -3.5736    3.4711 C.ar      1 <0>        -0.0729
      5 C5          5.7853   -3.1215    2.6626 C.ar      1 <0>        -0.0850
      6 C6          6.8332   -2.3910    3.2319 C.ar      1 <0>        -0.0633
      7 C7          6.8211   -2.1133    4.5824 C.ar      1 <0>        -0.1216
      8 C8          5.7883   -3.4187    1.2193 C.2       1 <0>         0.3152
      9 C9          4.6573   -3.1851    0.4647 C.2       1 <0>        -0.3859
     10 C10         3.3846   -2.5101    0.9211 C.3       1 <0>         0.2468
     11 H1          2.9365   -3.0730    1.7399 H         1 <0>         0.0962
     12 N1          2.4801   -2.4957   -0.2321 N.am      1 <0>        -0.5835
     13 C11         3.0901   -3.0851   -1.2741 C.2       1 <0>         0.4771
     14 O1          2.5991   -3.2343   -2.3743 O.2       1 <0>        -0.4906
     15 C12         4.4568   -3.5259   -0.8831 C.2       1 <0>         0.3882
     16 O2          5.2599   -4.0884   -1.6048 O.2       1 <0>        -0.4413
     17 C13         1.1267   -1.9348   -0.2449 C.3       1 <0>         0.1302
     18 C14         1.1892   -0.4613   -0.6519 C.3       1 <0>        -0.1176
     19 C15        -0.2241    0.1245   -0.6652 C.3       1 <0>        -0.1551
     20 C16        -0.1626    1.5759   -1.0661 C.2       1 <0>         0.4612
     21 O3          0.9024    2.0891   -1.3156 O.co2     1 <0>        -0.6392
     22 C17         3.6786   -1.0999    1.3638 C.ar      1 <0>        -0.1401
     23 C18         4.0811   -0.1555    0.4376 C.ar      1 <0>        -0.0401
     24 C19         4.3457    1.1393    0.8400 C.ar      1 <0>        -0.1945
     25 C20         4.2179    1.4889    2.1765 C.ar      1 <0>         0.1378
     26 C21         3.8194    0.5380    3.1048 C.ar      1 <0>        -0.1528
     27 C22         3.5509   -0.7541    2.6964 C.ar      1 <0>        -0.0611
     28 O4          4.4830    2.7606    2.5758 O.3       1 <0>        -0.3187
     29 C23         4.8884    3.6865    1.5657 C.3       1 <0>         0.0251
     30 O5          6.8977   -3.9195    0.6356 O.3       1 <0>        -0.4404
     31 H2          6.2914   -3.0588    7.3881 H         1 <0>         0.0737
     32 H3          6.2903   -1.3153    7.0297 H         1 <0>         0.0700
     33 H4          4.7494   -2.1885    7.2063 H         1 <0>         0.0710
     34 H5          3.9337   -3.6403    5.4464 H         1 <0>         0.1321
     35 H6          3.9268   -4.1415    3.0393 H         1 <0>         0.1327
     36 H7          7.6480   -2.0424    2.6147 H         1 <0>         0.1291
     37 H8          7.6277   -1.5460    5.0228 H         1 <0>         0.1286
     38 H9          0.6893   -2.0187    0.7500 H         1 <0>         0.0821
     39 H10         0.5128   -2.4834   -0.9592 H         1 <0>         0.0852
     40 H11         1.6266   -0.3774   -1.6467 H         1 <0>         0.0630
     41 H12         1.8032    0.0873    0.0624 H         1 <0>         0.0746
     42 H13        -0.6616    0.0406    0.3297 H         1 <0>         0.0634
     43 H14        -0.8381   -0.4240   -1.3795 H         1 <0>         0.0640
     44 H15         4.1847   -0.4292   -0.6020 H         1 <0>         0.1161
     45 H16         4.6554    1.8779    0.1155 H         1 <0>         0.1290
     46 H17         3.7188    0.8078    4.1457 H         1 <0>         0.1273
     47 H18         3.2406   -1.4947    3.4187 H         1 <0>         0.1256
     48 H19         4.1023    3.7729    0.8154 H         1 <0>         0.0646
     49 H20         5.0679    4.6619    2.0178 H         1 <0>         0.0977
     50 H21         5.8040    3.3310    1.0932 H         1 <0>         0.0526
     51 H22         6.7265   -4.0608   -0.3395 H         1 <0>         0.4220
     52 O6         -1.2915    2.2971   -1.1514 O.co2     1 <0>        -0.7780
@<TRIPOS>BOND
     1    1    2 1
     2    1   31 1
     3    1   32 1
     4    1   33 1
     5    2    7 ar
     6    2    3 ar
     7    3    4 ar
     8    3   34 1
     9    4    5 ar
    10    4   35 1
    11    5    6 ar
    12    5    8 1
    13    6    7 ar
    14    6   36 1
    15    7   37 1
    16    8    9 2
    17    8   30 1
    18    9   15 1
    19    9   10 1
    20   10   11 1
    21   10   12 1
    22   10   22 1
    23   12   13 am
    24   12   17 1
    25   13   14 2
    26   13   15 1
    27   15   16 2
    28   17   18 1
    29   17   38 1
    30   17   39 1
    31   18   19 1
    32   18   40 1
    33   18   41 1
    34   19   20 1
    35   19   42 1
    36   19   43 1
    37   20   21 2
    38   20   52 1
    39   22   27 ar
    40   22   23 ar
    41   23   24 ar
    42   23   44 1
    43   24   25 ar
    44   24   45 1
    45   25   26 ar
    46   25   28 1
    47   26   27 ar
    48   26   46 1
    49   27   47 1
    50   28   29 1
    51   29   48 1
    52   29   49 1
    53   29   50 1
    54   30   51 1
@<TRIPOS>MOLECULE
ZINC22513025
   48    50     0     0     0
SMALL
USER_CHARGES
2-chloro-N-(3-indolin-1-ylpropyl)-5-methanesulfonamido-benzamide
@<TRIPOS>ATOM
      1 C1          0.8758    1.0478    1.6558 C.3       1 <0>        -0.7005
      2 S1          0.1189    2.4388    0.7709 S.o2      1 <0>         2.5375
      3 O1          1.0927    3.4397    0.5079 O.2       1 <0>        -0.9982
      4 O2         -0.7243    1.9580   -0.2669 O.2       1 <0>        -1.0360
      5 N1         -0.9122    3.1300    1.8670 N.2       1 <0>        -1.0975
      6 C2         -2.0010    2.4032    2.3569 C.ar      1 <0>         0.2245
      7 C3         -3.1191    2.2015    1.5554 C.ar      1 <0>        -0.1254
      8 C4         -4.1963    1.4799    2.0325 C.ar      1 <0>        -0.1051
      9 C5         -4.1742    0.9626    3.3136 C.ar      1 <0>        -0.0370
     10 C6         -3.0576    1.1645    4.1284 C.ar      1 <0>        -0.1207
     11 C7         -1.9681    1.8890    3.6433 C.ar      1 <0>        -0.1259
     12 C8         -3.0301    0.6124    5.4990 C.2       1 <0>         0.5605
     13 O3         -3.9804   -0.0185    5.9193 O.2       1 <0>        -0.5293
     14 N2         -1.9514    0.8082    6.2829 N.am      1 <0>        -0.7432
     15 C9         -1.9241    0.2609    7.6415 C.3       1 <0>         0.1325
     16 C10        -0.5970    0.6236    8.3109 C.3       1 <0>        -0.1710
     17 C11        -0.5685    0.0519    9.7298 C.3       1 <0>         0.0493
     18 N3          0.7399    0.3222   10.3405 N.pl3     1 <0>        -0.4765
     19 C12         0.9481    1.7747   10.5266 C.3       1 <0>         0.0351
     20 C13         2.4800    1.9188   10.3760 C.3       1 <0>        -0.0811
     21 C14         2.8468    0.7273    9.5140 C.ar      1 <0>        -0.1393
     22 C15         1.7788   -0.1622    9.5361 C.ar      1 <0>         0.1006
     23 C16         1.8677   -1.3458    8.8057 C.ar      1 <0>        -0.1365
     24 C17         3.0045   -1.6276    8.0768 C.ar      1 <0>        -0.0938
     25 C18         4.0634   -0.7387    8.0657 C.ar      1 <0>        -0.1441
     26 C19         3.9817    0.4397    8.7858 C.ar      1 <0>        -0.0798
     27 Cl1        -5.5330    0.0618    3.9101 Cl        1 <0>        -0.0682
     28 H1          0.1130    0.2803    1.8535 H         1 <0>         0.1022
     29 H2          1.2937    1.4035    2.6091 H         1 <0>         0.1077
     30 H3          1.6796    0.6161    1.0413 H         1 <0>         0.0918
     31 H4         -3.1440    2.6072    0.5548 H         1 <0>         0.1305
     32 H5         -5.0602    1.3231    1.4036 H         1 <0>         0.1241
     33 H6         -1.1021    2.0488    4.2686 H         1 <0>         0.1207
     34 H7         -1.0915    1.3790    5.9025 H         1 <0>         0.4204
     35 H8         -2.7561    0.6836    8.2238 H         1 <0>         0.0644
     36 H9         -2.0258   -0.8335    7.5981 H         1 <0>         0.0643
     37 H10         0.2350    0.2010    7.7285 H         1 <0>         0.0793
     38 H11        -0.4953    1.7180    8.3544 H         1 <0>         0.0739
     39 H12        -1.3587    0.5247   10.3315 H         1 <0>         0.0871
     40 H13        -0.7376   -1.0343    9.6909 H         1 <0>         0.0857
     41 H14         0.3907    2.3268    9.7556 H         1 <0>         0.0671
     42 H15         0.5883    2.0721   11.5227 H         1 <0>         0.0931
     43 H16         2.7122    2.8794    9.8930 H         1 <0>         0.0819
     44 H17         2.9509    1.8847   11.3695 H         1 <0>         0.0860
     45 H18         1.0441   -2.0444    8.8103 H         1 <0>         0.1202
     46 H19         3.0677   -2.5465    7.5128 H         1 <0>         0.1245
     47 H20         4.9529   -0.9641    7.4961 H         1 <0>         0.1235
     48 H21         4.8081    1.1350    8.7780 H         1 <0>         0.1206
@<TRIPOS>BOND
     1    1    2 1
     2    1   28 1
     3    1   29 1
     4    1   30 1
     5    2    3 2
     6    2    4 2
     7    2    5 1
     8    5    6 1
     9    6   11 ar
    10    6    7 ar
    11    7    8 ar
    12    7   31 1
    13    8    9 ar
    14    8   32 1
    15    9   10 ar
    16    9   27 1
    17   10   11 ar
    18   10   12 1
    19   11   33 1
    20   12   13 2
    21   12   14 am
    22   14   15 1
    23   14   34 1
    24   15   16 1
    25   15   35 1
    26   15   36 1
    27   16   17 1
    28   16   37 1
    29   16   38 1
    30   17   18 1
    31   17   39 1
    32   17   40 1
    33   18   22 1
    34   18   19 1
    35   19   20 1
    36   19   41 1
    37   19   42 1
    38   20   21 1
    39   20   43 1
    40   20   44 1
    41   21   26 ar
    42   21   22 ar
    43   22   23 ar
    44   23   24 ar
    45   23   45 1
    46   24   25 ar
    47   24   46 1
    48   25   26 ar
    49   25   47 1
    50   26   48 1
@<TRIPOS>MOLECULE
ZINC40051959
   54    56     0     0     0
SMALL
USER_CHARGES

@<TRIPOS>ATOM
      1 C1          2.0496    1.5656   -1.3885 C.3       1 <0>        -0.1003
      2 C2          2.0989    0.0594   -1.3897 C.ar      1 <0>        -0.1335
      3 C3          1.0622   -0.6620   -1.9378 C.ar      1 <0>        -0.0358
      4 C4          1.1090   -2.0593   -1.9383 C.ar      1 <0>        -0.1693
      5 C5          2.2096   -2.7183   -1.3816 C.ar      1 <0>        -0.0308
      6 C6          3.2418   -1.9896   -0.8357 C.ar      1 <0>        -0.2215
      7 C7          3.1939   -0.5997   -0.8423 C.ar      1 <0>         0.1407
      8 O1          4.2161    0.1151   -0.3080 O.3       1 <0>        -0.3086
      9 C8          5.3100   -0.6253    0.2373 C.3       1 <0>         0.0842
     10 C9          6.3416    0.3295    0.7806 C.2       1 <0>        -0.1524
     11 C10         6.8825    0.1115    1.9536 C.2       1 <0>        -0.1750
     12 C11        -0.0004   -2.8367   -2.5245 C.2       1 <0>         0.5082
     13 O2         -0.9889   -2.2646   -2.9447 O.2       1 <0>        -0.4753
     14 C12         0.0886   -4.2984   -2.6004 C.2       1 <0>        -0.5033
     15 C13         0.1802   -5.0440   -3.7260 C.2       1 <0>         0.2640
     16 C14         0.2483   -6.4736   -3.3573 C.2       1 <0>         0.5123
     17 O3          0.3359   -7.3937   -4.1460 O.2       1 <0>        -0.5324
     18 N1          0.1991   -6.6056   -2.0193 N.am      1 <0>        -0.6132
     19 C15         0.1021   -5.2620   -1.4368 C.3       1 <0>         0.2641
     20 H1          0.9626   -5.0653   -0.7973 H         1 <0>         0.0727
     21 C16        -1.1733   -5.1353   -0.6441 C.ar      1 <0>        -0.0778
     22 C17        -2.3131   -5.7985   -1.0590 C.ar      1 <0>        -0.0687
     23 C18        -3.4832   -5.6833   -0.3327 C.ar      1 <0>        -0.1518
     24 C19        -3.5136   -4.9033    0.8109 C.ar      1 <0>         0.0829
     25 C20        -2.3714   -4.2396    1.2255 C.ar      1 <0>        -0.1519
     26 C21        -1.2011   -4.3604    0.5004 C.ar      1 <0>        -0.0872
     27 F1         -4.6570   -4.7897    1.5215 F         1 <0>        -0.1474
     28 C22         0.2406   -7.8670   -1.2753 C.3       1 <0>         0.1395
     29 C23         1.6938   -8.2223   -0.9546 C.3       1 <0>        -0.1391
     30 C24         1.7372   -9.5396   -0.1776 C.3       1 <0>         0.0802
     31 O4          3.0944   -9.8714    0.1220 O.3       1 <0>        -0.5741
     32 O5          0.2055   -4.5579   -4.9884 O.3       1 <0>        -0.6525
     33 H2          2.5048    1.9447   -2.3035 H         1 <0>         0.0650
     34 H3          1.0119    1.8950   -1.3354 H         1 <0>         0.0639
     35 H4          2.5963    1.9464   -0.5259 H         1 <0>         0.0665
     36 H5          0.2139   -0.1492   -2.3664 H         1 <0>         0.1362
     37 H6          2.2495   -3.7976   -1.3797 H         1 <0>         0.1362
     38 H7          4.0921   -2.4978   -0.4055 H         1 <0>         0.1274
     39 H8          4.9495   -1.2668    1.0415 H         1 <0>         0.0680
     40 H9          5.7586   -1.2391   -0.5437 H         1 <0>         0.0735
     41 H10         6.6350    1.1935    0.2028 H         1 <0>         0.1190
     42 H11         6.5891   -0.7525    2.5314 H         1 <0>         0.0996
     43 H12         7.6218    0.7958    2.3430 H         1 <0>         0.1063
     44 H13        -2.2893   -6.4065   -1.9512 H         1 <0>         0.1277
     45 H14        -4.3736   -6.2012   -0.6571 H         1 <0>         0.1302
     46 H15        -2.3940   -3.6306    2.1171 H         1 <0>         0.1303
     47 H16        -0.3088   -3.8464    0.8260 H         1 <0>         0.1295
     48 H17        -0.3206   -7.7599   -0.3471 H         1 <0>         0.0769
     49 H18        -0.2025   -8.6593   -1.8785 H         1 <0>         0.0800
     50 H19         2.2550   -8.3293   -1.8828 H         1 <0>         0.0751
     51 H20         2.1369   -7.4299   -0.3514 H         1 <0>         0.0724
     52 H21         1.1759   -9.4325    0.7507 H         1 <0>         0.0459
     53 H22         1.2940  -10.3320   -0.7808 H         1 <0>         0.0469
     54 H23         3.1979  -10.6970    0.6148 H         1 <0>         0.3768
@<TRIPOS>BOND
     1    1    2 1
     2    1   33 1
     3    1   34 1
     4    1   35 1
     5    2    7 ar
     6    2    3 ar
     7    3    4 ar
     8    3   36 1
     9    4    5 ar
    10    4   12 1
    11    5    6 ar
    12    5   37 1
    13    6    7 ar
    14    6   38 1
    15    7    8 1
    16    8    9 1
    17    9   10 1
    18    9   39 1
    19    9   40 1
    20   10   11 2
    21   10   41 1
    22   11   42 1
    23   11   43 1
    24   12   13 2
    25   12   14 1
    26   14   19 1
    27   14   15 2
    28   15   16 1
    29   15   32 1
    30   16   17 2
    31   16   18 am
    32   18   19 1
    33   18   28 1
    34   19   20 1
    35   19   21 1
    36   21   26 ar
    37   21   22 ar
    38   22   23 ar
    39   22   44 1
    40   23   24 ar
    41   23   45 1
    42   24   25 ar
    43   24   27 1
    44   25   26 ar
    45   25   46 1
    46   26   47 1
    47   28   29 1
    48   28   48 1
    49   28   49 1
    50   29   30 1
    51   29   50 1
    52   29   51 1
    53   30   31 1
    54   30   52 1
    55   30   53 1
    56   31   54 1
@<TRIPOS>MOLECULE
ZINC40083701
   59    61     0     0     0
SMALL
USER_CHARGES

@<TRIPOS>ATOM
      1 C1          3.2121    1.9124    1.3265 C.3       1 <0>        -0.1513
      2 C2          3.5283    0.4166    1.3863 C.3       1 <0>        -0.1221
      3 C3          2.3154   -0.3397    1.9320 C.3       1 <0>        -0.1188
      4 C4          2.6316   -1.8354    1.9918 C.3       1 <0>         0.0598
      5 O1          1.4987   -2.5418    2.5015 O.3       1 <0>        -0.3181
      6 C5          1.6143   -3.8887    2.6189 C.ar      1 <0>         0.1270
      7 C6          2.8002   -4.5172    2.2549 C.ar      1 <0>        -0.2108
      8 C7          2.9217   -5.8832    2.3728 C.ar      1 <0>        -0.0420
      9 C8          1.8505   -6.6390    2.8595 C.ar      1 <0>        -0.1379
     10 C9          0.6601   -6.0032    3.2243 C.ar      1 <0>        -0.0198
     11 C10         0.5488   -4.6358    3.1082 C.ar      1 <0>        -0.1575
     12 C11        -0.4977   -6.8127    3.7490 C.3       1 <0>        -0.1252
     13 C12         1.9762   -8.1042    2.9872 C.2       1 <0>         0.4669
     14 O2          2.6296   -8.5820    3.8960 O.2       1 <0>        -0.4890
     15 C13         1.3138   -8.9841    2.0191 C.2       1 <0>        -0.4771
     16 C14         1.2540  -10.3352    2.0654 C.2       1 <0>         0.2768
     17 C15         0.4928  -10.8280    0.8984 C.2       1 <0>         0.5061
     18 O3          0.2654  -11.9969    0.6572 O.2       1 <0>        -0.5395
     19 N1          0.0888   -9.7909    0.1425 N.am      1 <0>        -0.6007
     20 C16         0.5608   -8.5565    0.7809 C.3       1 <0>         0.2560
     21 H1         -0.2853   -7.9267    1.0556 H         1 <0>         0.0797
     22 C17         1.4798   -7.8124   -0.1533 C.ar      1 <0>        -0.0674
     23 C18         2.4467   -8.4988   -0.8638 C.ar      1 <0>        -0.0952
     24 C19         3.2897   -7.8163   -1.7208 C.ar      1 <0>        -0.1247
     25 C20         3.1654   -6.4474   -1.8676 C.ar      1 <0>        -0.1013
     26 C21         2.1979   -5.7611   -1.1579 C.ar      1 <0>        -0.1201
     27 C22         1.3521   -6.4443   -0.3041 C.ar      1 <0>        -0.0946
     28 C23         4.0850   -5.7032   -2.8012 C.3       1 <0>        -0.1076
     29 C24        -0.6900   -9.8780   -1.0953 C.3       1 <0>         0.1361
     30 C25        -2.1827   -9.8275   -0.7633 C.3       1 <0>         0.0594
     31 O4         -2.5033   -8.5522   -0.2039 O.3       1 <0>        -0.5632
     32 O5          1.8039  -11.1117    3.0274 O.3       1 <0>        -0.6130
     33 H2          2.9783    2.2746    2.3276 H         1 <0>         0.0550
     34 H3          4.0762    2.4511    0.9377 H         1 <0>         0.0554
     35 H4          2.3565    2.0770    0.6715 H         1 <0>         0.0552
     36 H5          3.7621    0.0543    0.3852 H         1 <0>         0.0646
     37 H6          4.3839    0.2520    2.0412 H         1 <0>         0.0643
     38 H7          2.0816    0.0226    2.9331 H         1 <0>         0.0720
     39 H8          1.4598   -0.1751    1.2771 H         1 <0>         0.0725
     40 H9          2.8653   -2.1977    0.9907 H         1 <0>         0.0604
     41 H10         3.4872   -2.0000    2.6468 H         1 <0>         0.0594
     42 H11         3.6269   -3.9328    1.8788 H         1 <0>         0.1213
     43 H12         3.8429   -6.3706    2.0895 H         1 <0>         0.1195
     44 H13        -0.3691   -4.1433    3.3937 H         1 <0>         0.1263
     45 H14        -0.4708   -6.8214    4.8386 H         1 <0>         0.0701
     46 H15        -1.4341   -6.3680    3.4122 H         1 <0>         0.0665
     47 H16        -0.4256   -7.8342    3.3756 H         1 <0>         0.0855
     48 H17         2.5438   -9.5683   -0.7491 H         1 <0>         0.1135
     49 H18         4.0456   -8.3525   -2.2753 H         1 <0>         0.1129
     50 H19         2.1010   -4.6916   -1.2723 H         1 <0>         0.1107
     51 H20         0.5937   -5.9086    0.2476 H         1 <0>         0.1158
     52 H21         3.6411   -5.6667   -3.7960 H         1 <0>         0.0627
     53 H22         4.2336   -4.6883   -2.4322 H         1 <0>         0.0598
     54 H23         5.0455   -6.2161   -2.8504 H         1 <0>         0.0606
     55 H24        -0.4338   -9.0414   -1.7454 H         1 <0>         0.0821
     56 H25        -0.4621  -10.8154   -1.6027 H         1 <0>         0.0905
     57 H26        -2.7626   -9.9812   -1.6733 H         1 <0>         0.0502
     58 H27        -2.4215  -10.6104   -0.0436 H         1 <0>         0.0493
     59 H28        -3.4356   -8.4490    0.0311 H         1 <0>         0.3730
@<TRIPOS>BOND
     1    1    2 1
     2    1   33 1
     3    1   34 1
     4    1   35 1
     5    2    3 1
     6    2   36 1
     7    2   37 1
     8    3    4 1
     9    3   38 1
    10    3   39 1
    11    4    5 1
    12    4   40 1
    13    4   41 1
    14    5    6 1
    15    6   11 ar
    16    6    7 ar
    17    7    8 ar
    18    7   42 1
    19    8    9 ar
    20    8   43 1
    21    9   10 ar
    22    9   13 1
    23   10   11 ar
    24   10   12 1
    25   11   44 1
    26   12   45 1
    27   12   46 1
    28   12   47 1
    29   13   14 2
    30   13   15 1
    31   15   20 1
    32   15   16 2
    33   16   17 1
    34   16   32 1
    35   17   18 2
    36   17   19 am
    37   19   20 1
    38   19   29 1
    39   20   21 1
    40   20   22 1
    41   22   27 ar
    42   22   23 ar
    43   23   24 ar
    44   23   48 1
    45   24   25 ar
    46   24   49 1
    47   25   26 ar
    48   25   28 1
    49   26   27 ar
    50   26   50 1
    51   27   51 1
    52   28   52 1
    53   28   53 1
    54   28   54 1
    55   29   30 1
    56   29   55 1
    57   29   56 1
    58   30   31 1
    59   30   57 1
    60   30   58 1
    61   31   59 1
@<TRIPOS>MOLECULE
ZINC50836618
   57    58     0     0     0
SMALL
USER_CHARGES

@<TRIPOS>ATOM
      1 C1          0.7291    1.2860   -0.5205 C.3       1 <0>        -0.1455
      2 C2          0.0133    0.0445    0.0155 C.3       1 <0>        -0.0771
      3 C3          0.7392   -0.4676    1.2328 C.ar      1 <0>        -0.1217
      4 C4          1.7572   -1.3928    1.0905 C.ar      1 <0>        -0.1012
      5 C5          2.4245   -1.8641    2.2040 C.ar      1 <0>        -0.1637
      6 C6          2.0721   -1.4080    3.4677 C.ar      1 <0>         0.1759
      7 C7          1.0492   -0.4787    3.6071 C.ar      1 <0>        -0.1135
      8 C8          0.3898   -0.0072    2.4890 C.ar      1 <0>        -0.1004
      9 N1          2.7455   -1.8835    4.5973 N.pl3     1 <0>        -0.6769
     10 C9          2.0784   -2.0343    5.7738 C.2       1 <0>         0.5474
     11 O1          0.7483   -1.8342    5.8237 O.3       1 <0>        -0.6169
     12 C10         2.7746   -2.3971    6.9306 C.2       1 <0>        -0.4467
     13 C11         4.1897   -2.6100    6.8775 C.1       1 <0>         0.2948
     14 N2          5.3123   -2.7789    6.8353 N.1       1 <0>        -0.5334
     15 C12         2.0839   -2.5532    8.1488 C.2       1 <0>         0.4270
     16 O2          0.8832   -2.3726    8.1938 O.2       1 <0>        -0.4947
     17 C13         2.8344   -2.9442    9.3957 C.3       1 <0>        -0.1416
     18 H1          3.6964   -3.5541    9.1253 H         1 <0>         0.0794
     19 C14         1.9114   -3.7445   10.3176 C.3       1 <0>        -0.1031
     20 C15         2.6821   -4.1702   11.5694 C.3       1 <0>        -0.1346
     21 C16         3.1541   -2.9224   12.3225 C.3       1 <0>         0.1122
     22 N3          3.9223   -2.0755   11.3998 N.am      1 <0>        -0.5905
     23 C17         3.3088   -1.6826   10.1237 C.3       1 <0>         0.1461
     24 C18         5.1665   -1.6665   11.7176 C.2       1 <0>         0.6505
     25 O3          5.7916   -0.9663   10.9459 O.2       1 <0>        -0.5630
     26 O4          5.7169   -2.0338   12.8902 O.3       1 <0>        -0.3597
     27 C19         7.0389   -1.5640   13.1617 C.3       1 <0>         0.1336
     28 C20         7.0457   -0.0340   13.1657 C.3       1 <0>        -0.1849
     29 C21         7.4925   -2.0796   14.5289 C.3       1 <0>        -0.1377
     30 C22         7.9938   -2.0755   12.0813 C.3       1 <0>        -0.1859
     31 H2          1.7529    1.0270   -0.7902 H         1 <0>         0.0534
     32 H3          0.2040    1.6564   -1.4009 H         1 <0>         0.0513
     33 H4          0.7403    2.0590    0.2479 H         1 <0>         0.0548
     34 H5         -1.0106    0.3036    0.2853 H         1 <0>         0.0664
     35 H6          0.0020   -0.7285   -0.7529 H         1 <0>         0.0648
     36 H7          2.0304   -1.7473    0.1077 H         1 <0>         0.1153
     37 H8          3.2191   -2.5869    2.0923 H         1 <0>         0.1168
     38 H9          0.7729   -0.1220    4.5883 H         1 <0>         0.1418
     39 H10        -0.4027    0.7187    2.5963 H         1 <0>         0.1168
     40 H11         3.6880   -2.1060    4.5422 H         1 <0>         0.4001
     41 H12         1.0619   -3.1259   10.6070 H         1 <0>         0.0743
     42 H13         1.5533   -4.6303    9.7929 H         1 <0>         0.0666
     43 H14         2.0309   -4.7599   12.2145 H         1 <0>         0.0751
     44 H15         3.5458   -4.7683   11.2790 H         1 <0>         0.0639
     45 H16         2.2902   -2.3701   12.6920 H         1 <0>         0.0702
     46 H17         3.7866   -3.2183   13.1594 H         1 <0>         0.0873
     47 H18         4.0431   -1.1609    9.5100 H         1 <0>         0.0975
     48 H19         2.4578   -1.0287   10.3140 H         1 <0>         0.0759
     49 H20         6.3654    0.3304   13.9354 H         1 <0>         0.0572
     50 H21         8.0541    0.3243   13.3728 H         1 <0>         0.0664
     51 H22         6.7225    0.3333   12.1917 H         1 <0>         0.0892
     52 H23         7.4877   -3.1696   14.5261 H         1 <0>         0.0649
     53 H24         8.5009   -1.7213   14.7361 H         1 <0>         0.0772
     54 H25         6.8122   -1.7152   15.2987 H         1 <0>         0.0646
     55 H26         7.6706   -1.7082   11.1072 H         1 <0>         0.0902
     56 H27         9.0022   -1.7171   12.2884 H         1 <0>         0.0662
     57 H28         7.9890   -3.1654   12.0784 H         1 <0>         0.0576
@<TRIPOS>BOND
     1    1    2 1
     2    1   31 1
     3    1   32 1
     4    1   33 1
     5    2    3 1
     6    2   34 1
     7    2   35 1
     8    3    8 ar
     9    3    4 ar
    10    4    5 ar
    11    4   36 1
    12    5    6 ar
    13    5   37 1
    14    6    7 ar
    15    6    9 1
    16    7    8 ar
    17    7   38 1
    18    8   39 1
    19    9   10 1
    20    9   40 1
    21   10   11 1
    22   10   12 2
    23   12   13 1
    24   12   15 1
    25   13   14 3
    26   15   16 2
    27   15   17 1
    28   17   18 1
    29   17   23 1
    30   17   19 1
    31   19   20 1
    32   19   41 1
    33   19   42 1
    34   20   21 1
    35   20   43 1
    36   20   44 1
    37   21   22 1
    38   21   45 1
    39   21   46 1
    40   22   23 1
    41   22   24 am
    42   23   47 1
    43   23   48 1
    44   24   25 2
    45   24   26 1
    46   26   27 1
    47   27   28 1
    48   27   29 1
    49   27   30 1
    50   28   49 1
    51   28   50 1
    52   28   51 1
    53   29   52 1
    54   29   53 1
    55   29   54 1
    56   30   55 1
    57   30   56 1
    58   30   57 1
@<TRIPOS>MOLECULE
ZINC13018653
   53    55     0     0     0
SMALL
USER_CHARGES
3-[3-[(1S)-2-[(4-chlorophenyl)methylamino]-1-methyl-2-oxo-ethyl]sulfanyl-5-(p-tolyl)-1,2,4-triazol-4-yl]propanoic acid
@<TRIPOS>ATOM
      1 C1          3.7172    6.5234    1.4677 C.3       1 <0>        -0.1155
      2 C2          3.0222    5.2538    1.8874 C.ar      1 <0>        -0.0756
      3 C3          3.3318    4.6684    3.1022 C.ar      1 <0>        -0.1241
      4 C4          2.6993    3.5061    3.4925 C.ar      1 <0>        -0.0731
      5 C5          1.7454    2.9206    2.6585 C.ar      1 <0>        -0.0227
      6 C6          1.4419    3.5132    1.4318 C.ar      1 <0>        -0.1063
      7 C7          2.0776    4.6785    1.0561 C.ar      1 <0>        -0.1133
      8 C8          1.0639    1.6749    3.0701 C.2       1 <0>         0.2252
      9 N1          1.4728    0.8278    3.9857 N.2       1 <0>        -0.2763
     10 N2          0.6391   -0.1448    4.0871 N.2       1 <0>        -0.2959
     11 C9         -0.3566    0.0246    3.2458 C.2       1 <0>         0.1430
     12 N3         -0.1185    1.1847    2.5657 N.pl3     1 <0>        -0.4431
     13 C10        -0.9519    1.7853    1.5211 C.3       1 <0>         0.1085
     14 C11        -0.5701    1.1952    0.1620 C.3       1 <0>        -0.1780
     15 C12        -1.4274    1.8130   -0.9125 C.2       1 <0>         0.4698
     16 O1         -2.2584    2.6403   -0.6211 O.co2     1 <0>        -0.6349
     17 S1         -1.7391   -1.0468    3.0331 S.3       1 <0>         0.0869
     18 C13        -1.3411   -2.3201    4.2565 C.3       1 <0>        -0.1154
     19 H1         -0.3448   -2.7154    4.0585 H         1 <0>         0.1238
     20 C14        -1.3780   -1.7092    5.6588 C.3       1 <0>        -0.1429
     21 C15        -2.3508   -3.4352    4.1676 C.2       1 <0>         0.5391
     22 O2         -3.4275   -3.2382    3.6452 O.2       1 <0>        -0.5165
     23 N4         -2.0574   -4.6515    4.6685 N.am      1 <0>        -0.7211
     24 C16        -3.0390   -5.7356    4.5821 C.3       1 <0>         0.1608
     25 C17        -2.4688   -6.9809    5.2106 C.ar      1 <0>        -0.1045
     26 C18        -1.7583   -7.8812    4.4389 C.ar      1 <0>        -0.0855
     27 C19        -1.2302   -9.0207    5.0160 C.ar      1 <0>        -0.1118
     28 C20        -1.4225   -9.2658    6.3640 C.ar      1 <0>        -0.0274
     29 C21        -2.1385   -8.3672    7.1347 C.ar      1 <0>        -0.1126
     30 C22        -2.6612   -7.2253    6.5576 C.ar      1 <0>        -0.0863
     31 Cl1        -0.7651  -10.7001    7.0882 Cl        1 <0>        -0.0686
     32 H2          4.6216    6.2758    0.9119 H         1 <0>         0.0717
     33 H3          3.0512    7.1101    0.8351 H         1 <0>         0.0684
     34 H4          3.9816    7.1024    2.3525 H         1 <0>         0.0662
     35 H5          4.0701    5.1225    3.7466 H         1 <0>         0.1271
     36 H6          2.9419    3.0502    4.4410 H         1 <0>         0.1338
     37 H7          0.7080    3.0627    0.7800 H         1 <0>         0.1411
     38 H8          1.8405    5.1405    0.1091 H         1 <0>         0.1306
     39 H9         -0.7946    2.8637    1.5061 H         1 <0>         0.1099
     40 H10        -2.0012    1.5739    1.7271 H         1 <0>         0.1044
     41 H11        -0.7274    0.1168    0.1770 H         1 <0>         0.0794
     42 H12         0.4792    1.4066   -0.0440 H         1 <0>         0.0751
     43 H13        -0.6477   -0.9027    5.7231 H         1 <0>         0.0921
     44 H14        -2.3743   -1.3139    5.8567 H         1 <0>         0.0694
     45 H15        -1.1383   -2.4760    6.3955 H         1 <0>         0.0679
     46 H16        -1.1963   -4.8091    5.0863 H         1 <0>         0.4050
     47 H17        -3.9478   -5.4458    5.1096 H         1 <0>         0.0820
     48 H18        -3.2730   -5.9313    3.5356 H         1 <0>         0.0830
     49 H19        -1.6120   -7.6920    3.3857 H         1 <0>         0.1367
     50 H20        -0.6714   -9.7218    4.4138 H         1 <0>         0.1364
     51 H21        -2.2886   -8.5579    8.1871 H         1 <0>         0.1358
     52 H22        -3.2198   -6.5236    7.1592 H         1 <0>         0.1356
     53 O3         -1.2677    1.4442   -2.1932 O.co2     1 <0>        -0.7576
@<TRIPOS>BOND
     1    1    2 1
     2    1   32 1
     3    1   33 1
     4    1   34 1
     5    2    7 ar
     6    2    3 ar
     7    3    4 ar
     8    3   35 1
     9    4    5 ar
    10    4   36 1
    11    5    6 ar
    12    5    8 1
    13    6    7 ar
    14    6   37 1
    15    7   38 1
    16    8   12 1
    17    8    9 2
    18    9   10 1
    19   10   11 2
    20   11   12 1
    21   11   17 1
    22   12   13 1
    23   13   14 1
    24   13   39 1
    25   13   40 1
    26   14   15 1
    27   14   41 1
    28   14   42 1
    29   15   16 2
    30   15   53 1
    31   17   18 1
    32   18   19 1
    33   18   20 1
    34   18   21 1
    35   20   43 1
    36   20   44 1
    37   20   45 1
    38   21   22 2
    39   21   23 am
    40   23   24 1
    41   23   46 1
    42   24   25 1
    43   24   47 1
    44   24   48 1
    45   25   30 ar
    46   25   26 ar
    47   26   27 ar
    48   26   49 1
    49   27   28 ar
    50   27   50 1
    51   28   29 ar
    52   28   31 1
    53   29   30 ar
    54   29   51 1
    55   30   52 1
@<TRIPOS>MOLECULE
ZINC13206755
   52    54     0     0     0
SMALL
USER_CHARGES
3-[7-chloro-2-[2-[(4-isopropylphenyl)amino]-2-oxo-ethyl]sulfanyl-4-oxo-quinazolin-3-yl]propanoic acid
@<TRIPOS>ATOM
      1 C1         -6.9673   -9.4072    2.5317 C.3       1 <0>        -0.1437
      2 C2         -7.2837   -7.9720    2.1063 C.3       1 <0>        -0.0566
      3 C3         -8.5632   -7.5040    2.8025 C.3       1 <0>        -0.1447
      4 C4         -6.1413   -7.0694    2.4953 C.ar      1 <0>        -0.0903
      5 C5         -5.4605   -6.3601    1.5228 C.ar      1 <0>        -0.0983
      6 C6         -4.4131   -5.5320    1.8760 C.ar      1 <0>        -0.1150
      7 C7         -4.0439   -5.4121    3.2094 C.ar      1 <0>         0.1389
      8 C8         -4.7259   -6.1301    4.1829 C.ar      1 <0>        -0.1406
      9 C9         -5.7764   -6.9518    3.8239 C.ar      1 <0>        -0.0983
     10 N1         -2.9832   -4.5740    3.5705 N.am      1 <0>        -0.6677
     11 C10        -2.7752   -3.4234    2.9002 C.2       1 <0>         0.5313
     12 O1         -3.4540   -3.1545    1.9317 O.2       1 <0>        -0.4970
     13 C11        -1.6991   -2.4709    3.3541 C.3       1 <0>        -0.1623
     14 S1         -1.6677   -1.0300    2.2591 S.3       1 <0>         0.1145
     15 C12        -0.3589   -0.1116    2.9994 C.2       1 <0>         0.3696
     16 N2          0.2395   -0.6137    4.0515 N.2       1 <0>        -0.5522
     17 C13         1.2484    0.0416    4.6717 C.ar      1 <0>         0.1920
     18 C14         1.8843   -0.4901    5.7970 C.ar      1 <0>        -0.1134
     19 C15         2.9071    0.2130    6.3948 C.ar      1 <0>         0.0130
     20 C16         3.3137    1.4440    5.8917 C.ar      1 <0>        -0.1444
     21 C17         2.7067    1.9844    4.7928 C.ar      1 <0>        -0.0181
     22 C18         1.6688    1.2941    4.1681 C.ar      1 <0>        -0.2025
     23 C19         0.9842    1.8300    2.9842 C.2       1 <0>         0.5508
     24 O2          1.3006    2.9031    2.5043 O.2       1 <0>        -0.4931
     25 N3         -0.0113    1.0878    2.4466 N.am      1 <0>        -0.5211
     26 C20        -0.7261    1.5777    1.2654 C.3       1 <0>         0.1038
     27 C21        -0.0196    1.0850    0.0009 C.3       1 <0>        -0.1717
     28 C22        -0.7550    1.5889   -1.2141 C.2       1 <0>         0.4713
     29 O3         -1.7428    2.2721   -1.0822 O.co2     1 <0>        -0.6362
     30 Cl1         3.6981   -0.4458    7.7927 Cl        1 <0>        -0.0623
     31 H1         -7.7936  -10.0601    2.2504 H         1 <0>         0.0567
     32 H2         -6.0557   -9.7406    2.0358 H         1 <0>         0.0559
     33 H3         -6.8272   -9.4434    3.6121 H         1 <0>         0.0557
     34 H4         -7.4238   -7.9358    1.0260 H         1 <0>         0.0777
     35 H5         -8.7886   -6.4816    2.4994 H         1 <0>         0.0569
     36 H6         -9.3895   -8.1569    2.5212 H         1 <0>         0.0568
     37 H7         -8.4231   -7.5402    3.8828 H         1 <0>         0.0558
     38 H8         -5.7483   -6.4535    0.4861 H         1 <0>         0.1255
     39 H9         -3.8820   -4.9781    1.1161 H         1 <0>         0.1416
     40 H10        -4.4383   -6.0424    5.2202 H         1 <0>         0.1249
     41 H11        -6.3103   -7.5068    4.5811 H         1 <0>         0.1239
     42 H12        -2.3976   -4.8211    4.3033 H         1 <0>         0.4137
     43 H13        -0.7322   -2.9730    3.3217 H         1 <0>         0.1340
     44 H14        -1.9067   -2.1476    4.3741 H         1 <0>         0.1332
     45 H15         1.5762   -1.4457    6.1949 H         1 <0>         0.1471
     46 H16         4.1176    1.9793    6.3751 H         1 <0>         0.1410
     47 H17         3.0296    2.9412    4.4100 H         1 <0>         0.1468
     48 H18        -0.7377    2.6676    1.2739 H         1 <0>         0.1108
     49 H19        -1.7497    1.2034    1.2790 H         1 <0>         0.1018
     50 H20        -0.0080   -0.0049   -0.0075 H         1 <0>         0.0745
     51 H21         1.0040    1.4593   -0.0127 H         1 <0>         0.0730
     52 O4         -0.3126    1.2788   -2.4429 O.co2     1 <0>        -0.7628
@<TRIPOS>BOND
     1    1    2 1
     2    1   31 1
     3    1   32 1
     4    1   33 1
     5    2    3 1
     6    2    4 1
     7    2   34 1
     8    3   35 1
     9    3   36 1
    10    3   37 1
    11    4    9 ar
    12    4    5 ar
    13    5    6 ar
    14    5   38 1
    15    6    7 ar
    16    6   39 1
    17    7    8 ar
    18    7   10 1
    19    8    9 ar
    20    8   40 1
    21    9   41 1
    22   10   11 am
    23   10   42 1
    24   11   12 2
    25   11   13 1
    26   13   14 1
    27   13   43 1
    28   13   44 1
    29   14   15 1
    30   15   25 1
    31   15   16 2
    32   16   17 1
    33   17   22 ar
    34   17   18 ar
    35   18   19 ar
    36   18   45 1
    37   19   20 ar
    38   19   30 1
    39   20   21 ar
    40   20   46 1
    41   21   22 ar
    42   21   47 1
    43   22   23 1
    44   23   24 2
    45   23   25 am
    46   25   26 1
    47   26   27 1
    48   26   48 1
    49   26   49 1
    50   27   28 1
    51   27   50 1
    52   27   51 1
    53   28   29 2
    54   28   52 1
@<TRIPOS>MOLECULE
ZINC35698079
   60    62     0     0     0
SMALL
USER_CHARGES

@<TRIPOS>ATOM
      1 C1          0.0552    1.8912    0.2799 C.3       1 <0>        -0.1041
      2 C2          0.0562    0.3849    0.3248 C.2       1 <0>         0.2323
      3 C3         -1.1221   -0.3071    0.1315 C.2       1 <0>        -0.3770
      4 C4         -1.0702   -1.8176    0.1858 C.3       1 <0>         0.2741
      5 H1         -1.7550   -2.1491    0.9664 H         1 <0>         0.0668
      6 N1          0.2552   -2.4404    0.4448 N.pl3     1 <0>        -0.5245
      7 C5          0.5367   -3.7892    0.5354 C.2       1 <0>         0.2336
      8 C6          1.8167   -4.1474    0.7779 C.2       1 <0>        -0.3085
      9 S1          2.6298   -2.5653    0.8788 S.3       1 <0>         0.1092
     10 C7          1.3014   -1.5757    0.6090 C.2       1 <0>         0.3240
     11 N2          1.1883   -0.2654    0.5440 N.2       1 <0>        -0.5945
     12 C8         -0.5189   -4.7994    0.3742 C.2       1 <0>        -0.4694
     13 C9         -0.2459   -6.0997    0.5952 C.2       1 <0>         0.5010
     14 O1          1.0256   -6.4907    0.8542 O.3       1 <0>        -0.7042
     15 N3         -1.2645   -7.0370    0.5576 N.pl3     1 <0>        -0.7510
     16 C10        -0.9885   -8.4330    0.9061 C.3       1 <0>         0.1422
     17 C11        -2.2422   -9.2762    0.6650 C.3       1 <0>         0.0498
     18 O2         -2.5470   -9.2882   -0.7311 O.3       1 <0>        -0.3828
     19 C12        -3.7071  -10.0524   -1.0662 C.3       1 <0>         0.0311
     20 C13        -1.5816   -2.3469   -1.1293 C.ar      1 <0>        -0.0757
     21 C14        -0.7301   -2.4402   -2.2144 C.ar      1 <0>        -0.0549
     22 C15        -1.1978   -2.9258   -3.4207 C.ar      1 <0>        -0.1477
     23 C16        -2.5198   -3.3189   -3.5424 C.ar      1 <0>         0.0920
     24 C17        -3.3718   -3.2250   -2.4550 C.ar      1 <0>        -0.1491
     25 C18        -2.9005   -2.7440   -1.2481 C.ar      1 <0>        -0.0716
     26 F1         -2.9782   -3.7934   -4.7213 F         1 <0>        -0.1472
     27 C19        -2.3284    0.3684   -0.1069 C.2       1 <0>         0.6102
     28 O3         -2.7371    0.5021   -1.2480 O.2       1 <0>        -0.5393
     29 N4         -3.0355    0.8697    0.9252 N.am      1 <0>        -0.6121
     30 C20        -2.5000    0.7916    2.2865 C.3       1 <0>         0.0831
     31 C21        -4.3396    1.4927    0.6857 C.3       1 <0>         0.1295
     32 C22        -5.4173    0.7352    1.4639 C.3       1 <0>        -0.1605
     33 C23        -4.3024    2.9493    1.1524 C.3       1 <0>        -0.1584
     34 H2          1.0669    2.2604    0.4476 H         1 <0>         0.0763
     35 H3         -0.2964    2.2254   -0.6962 H         1 <0>         0.0730
     36 H4         -0.6058    2.2774    1.0559 H         1 <0>         0.0723
     37 H5          2.2378   -5.1364    0.8836 H         1 <0>         0.2343
     38 H6         -1.5132   -4.4990    0.0787 H         1 <0>         0.0854
     39 H7         -2.1607   -6.7694    0.3006 H         1 <0>         0.3860
     40 H8         -0.1738   -8.8079    0.2865 H         1 <0>         0.0635
     41 H9         -0.7047   -8.4960    1.9566 H         1 <0>         0.0624
     42 H10        -2.0655  -10.2960    1.0071 H         1 <0>         0.0556
     43 H11        -3.0795   -8.8481    1.2160 H         1 <0>         0.0492
     44 H12        -3.5608  -11.0882   -0.7600 H         1 <0>         0.0375
     45 H13        -4.5748   -9.6403   -0.5510 H         1 <0>         0.0378
     46 H14        -3.8706  -10.0114   -2.1431 H         1 <0>         0.0831
     47 H15         0.3010   -2.1332   -2.1193 H         1 <0>         0.1154
     48 H16        -0.5325   -2.9983   -4.2683 H         1 <0>         0.1287
     49 H17        -4.4032   -3.5311   -2.5488 H         1 <0>         0.1283
     50 H18        -3.5636   -2.6748   -0.3985 H         1 <0>         0.1201
     51 H19        -1.9801    1.7191    2.5262 H         1 <0>         0.0509
     52 H20        -3.3183    0.6413    2.9908 H         1 <0>         0.0643
     53 H21        -1.8032   -0.0438    2.3555 H         1 <0>         0.0748
     54 H22        -4.5687    1.4582   -0.3794 H         1 <0>         0.0992
     55 H23        -6.3877    1.1987    1.2857 H         1 <0>         0.0640
     56 H24        -5.4439   -0.3025    1.1314 H         1 <0>         0.0578
     57 H25        -5.1883    0.7697    2.5290 H         1 <0>         0.0572
     58 H26        -3.5347    3.4890    0.5980 H         1 <0>         0.0575
     59 H27        -5.2727    3.4128    0.9742 H         1 <0>         0.0628
     60 H28        -4.0734    2.9838    2.2175 H         1 <0>         0.0561
@<TRIPOS>BOND
     1    1    2 1
     2    1   34 1
     3    1   35 1
     4    1   36 1
     5    2   11 1
     6    2    3 2
     7    3    4 1
     8    3   27 1
     9    4    5 1
    10    4    6 1
    11    4   20 1
    12    6   10 1
    13    6    7 1
    14    7    8 2
    15    7   12 1
    16    8    9 1
    17    8   37 1
    18    9   10 1
    19   10   11 2
    20   12   13 2
    21   12   38 1
    22   13   14 1
    23   13   15 1
    24   15   16 1
    25   15   39 1
    26   16   17 1
    27   16   40 1
    28   16   41 1
    29   17   18 1
    30   17   42 1
    31   17   43 1
    32   18   19 1
    33   19   44 1
    34   19   45 1
    35   19   46 1
    36   20   25 ar
    37   20   21 ar
    38   21   22 ar
    39   21   47 1
    40   22   23 ar
    41   22   48 1
    42   23   24 ar
    43   23   26 1
    44   24   25 ar
    45   24   49 1
    46   25   50 1
    47   27   28 2
    48   27   29 am
    49   29   30 1
    50   29   31 1
    51   30   51 1
    52   30   52 1
    53   30   53 1
    54   31   32 1
    55   31   33 1
    56   31   54 1
    57   32   55 1
    58   32   56 1
    59   32   57 1
    60   33   58 1
    61   33   59 1
    62   33   60 1
@<TRIPOS>MOLECULE
ZINC36063187
   56    58     0     0     0
SMALL
USER_CHARGES

@<TRIPOS>ATOM
      1 C1          0.0788    1.3945   -0.4980 C.3       1 <0>        -0.1405
      2 C2         -0.0535   -0.1281   -0.4281 C.3       1 <0>        -0.0731
      3 C3         -1.4860   -0.4950   -0.1374 C.2       1 <0>         0.2500
      4 C4         -2.3440   -0.7892   -1.1797 C.2       1 <0>        -0.3662
      5 C5         -3.7716   -1.1521   -0.8368 C.3       1 <0>         0.2810
      6 H1         -3.9723   -2.1438   -1.2421 H         1 <0>         0.0794
      7 N1         -4.1396   -1.1633    0.6041 N.pl3     1 <0>        -0.5217
      8 C6         -5.3744   -1.4629    1.1442 C.2       1 <0>         0.2343
      9 C7         -5.4989   -1.4150    2.4889 C.2       1 <0>        -0.3090
     10 S1         -3.8570   -0.9425    2.9944 S.3       1 <0>         0.1149
     11 C8         -3.1407   -0.8415    1.4799 C.2       1 <0>         0.3242
     12 N2         -1.9120   -0.5387    1.1144 N.2       1 <0>        -0.5923
     13 C9         -6.5135   -1.8209    0.2868 C.2       1 <0>        -0.4658
     14 C10        -7.6714   -2.2289    0.8408 C.2       1 <0>         0.5013
     15 O1         -7.8242   -2.2039    2.1872 O.3       1 <0>        -0.7036
     16 N3         -8.7056   -2.6738    0.0347 N.pl3     1 <0>        -0.7515
     17 C11       -10.0029   -3.0099    0.6265 C.3       1 <0>         0.1507
     18 C12       -10.8612   -1.7471    0.7246 C.3       1 <0>        -0.1574
     19 C13       -10.7125   -4.0418   -0.2525 C.3       1 <0>        -0.1570
     20 C14        -4.6800   -0.1761   -1.5392 C.ar      1 <0>        -0.1077
     21 C15        -5.0837    0.9783   -0.8963 C.ar      1 <0>        -0.0460
     22 C16        -5.9174    1.8739   -1.5399 C.ar      1 <0>        -0.1509
     23 C17        -6.3489    1.6171   -2.8284 C.ar      1 <0>        -0.0839
     24 C18        -5.9477    0.4647   -3.4756 C.ar      1 <0>        -0.2096
     25 C19        -5.1068   -0.4331   -2.8337 C.ar      1 <0>         0.1355
     26 O2         -4.7062   -1.5649   -3.4704 O.3       1 <0>        -0.3081
     27 C20        -5.1038   -1.7173   -4.8345 C.3       1 <0>         0.0321
     28 C21        -1.9065   -0.7520   -2.5092 C.2       1 <0>         0.5691
     29 O3         -1.6478   -1.7890   -3.0948 O.2       1 <0>        -0.5097
     30 O4         -1.7712    0.4339   -3.1431 O.3       1 <0>        -0.3518
     31 C22        -1.3204    0.3971   -4.4986 C.3       1 <0>         0.0344
     32 H2          1.1149    1.6599   -0.7083 H         1 <0>         0.0561
     33 H3         -0.5628    1.7789   -1.2909 H         1 <0>         0.0616
     34 H4         -0.2214    1.8295    0.4553 H         1 <0>         0.0606
     35 H5          0.2467   -0.5631   -1.3813 H         1 <0>         0.0674
     36 H6          0.5881   -0.5125    0.3648 H         1 <0>         0.0835
     37 H7         -6.3682   -1.6114    3.0989 H         1 <0>         0.2354
     38 H8         -6.4219   -1.7568   -0.7874 H         1 <0>         0.0835
     39 H9         -8.5711   -2.7630   -0.9217 H         1 <0>         0.3820
     40 H10        -9.8512   -3.4245    1.6231 H         1 <0>         0.0806
     41 H11       -11.8265   -1.9972    1.1649 H         1 <0>         0.0484
     42 H12       -10.3557   -1.0120    1.3509 H         1 <0>         0.0599
     43 H13       -11.0129   -1.3326   -0.2720 H         1 <0>         0.0437
     44 H14       -10.1010   -4.9414   -0.3224 H         1 <0>         0.0549
     45 H15       -11.6777   -4.2919    0.1878 H         1 <0>         0.0596
     46 H16       -10.8642   -3.6273   -1.2491 H         1 <0>         0.0504
     47 H17        -4.7481    1.1811    0.1100 H         1 <0>         0.1150
     48 H18        -6.2324    2.7753   -1.0354 H         1 <0>         0.1192
     49 H19        -7.0004    2.3181   -3.3289 H         1 <0>         0.1190
     50 H20        -6.2850    0.2647   -4.4819 H         1 <0>         0.1228
     51 H21        -4.6545   -0.9259   -5.4344 H         1 <0>         0.0486
     52 H22        -4.7704   -2.6871   -5.2039 H         1 <0>         0.0962
     53 H23        -6.1897   -1.6552   -4.9055 H         1 <0>         0.0528
     54 H24        -0.3376   -0.0721   -4.5421 H         1 <0>         0.0540
     55 H25        -2.0245   -0.1778   -5.1002 H         1 <0>         0.0514
     56 H26        -1.2554    1.4133   -4.8876 H         1 <0>         0.0920
@<TRIPOS>BOND
     1    1    2 1
     2    1   32 1
     3    1   33 1
     4    1   34 1
     5    2    3 1
     6    2   35 1
     7    2   36 1
     8    3   12 1
     9    3    4 2
    10    4    5 1
    11    4   28 1
    12    5    6 1
    13    5    7 1
    14    5   20 1
    15    7   11 1
    16    7    8 1
    17    8    9 2
    18    8   13 1
    19    9   10 1
    20    9   37 1
    21   10   11 1
    22   11   12 2
    23   13   14 2
    24   13   38 1
    25   14   15 1
    26   14   16 1
    27   16   17 1
    28   16   39 1
    29   17   18 1
    30   17   19 1
    31   17   40 1
    32   18   41 1
    33   18   42 1
    34   18   43 1
    35   19   44 1
    36   19   45 1
    37   19   46 1
    38   20   25 ar
    39   20   21 ar
    40   21   22 ar
    41   21   47 1
    42   22   23 ar
    43   22   48 1
    44   23   24 ar
    45   23   49 1
    46   24   25 ar
    47   24   50 1
    48   25   26 1
    49   26   27 1
    50   27   51 1
    51   27   52 1
    52   27   53 1
    53   28   29 2
    54   28   30 1
    55   30   31 1
    56   31   54 1
    57   31   55 1
    58   31   56 1
@<TRIPOS>MOLECULE
ZINC39724648
   58    60     0     0     0
SMALL
USER_CHARGES

@<TRIPOS>ATOM
      1 C1         -0.0187    1.5258    0.0104 C.3       1 <0>        -0.1492
      2 C2          0.0021   -0.0041    0.0020 C.3       1 <0>        -0.1138
      3 C3          0.7421   -0.5109    1.2415 C.3       1 <0>        -0.0583
      4 C4          0.7625   -2.0177    1.2333 C.ar      1 <0>         0.1783
      5 C5          1.9609   -2.7007    1.3221 C.ar      1 <0>        -0.3339
      6 C6          1.9350   -4.0949    1.3114 C.ar      1 <0>         0.4438
      7 O1          3.0865   -4.8041    1.3969 O.3       1 <0>        -0.7040
      8 N1          0.7668   -4.7176    1.2168 N.ar      1 <0>        -0.6138
      9 C7         -0.3617   -4.0273    1.1335 C.ar      1 <0>         0.3220
     10 N2         -0.3681   -2.7021    1.1463 N.ar      1 <0>        -0.5802
     11 S1         -1.8914   -4.8929    1.0093 S.3       1 <0>         0.0184
     12 C8         -1.4096   -6.6415    1.0358 C.3       1 <0>        -0.0997
     13 H1         -0.8119   -6.8402    1.9254 H         1 <0>         0.1119
     14 C9         -0.5871   -6.9629   -0.2136 C.3       1 <0>        -0.1374
     15 C10        -2.6459   -7.5030    1.0587 C.2       1 <0>         0.5328
     16 O2         -3.6906   -7.0763    0.6144 O.2       1 <0>        -0.4720
     17 N3         -2.5906   -8.7476    1.5729 N.am      1 <0>        -0.7255
     18 C11        -3.7925   -9.5850    1.5951 C.3       1 <0>         0.1751
     19 H2         -4.2189   -9.6399    2.5967 H         1 <0>         0.1385
     20 C12        -3.5141  -10.9937    1.0180 C.3       1 <0>        -0.0567
     21 H3         -4.1341  -11.7216    1.5413 H         1 <0>         0.1388
     22 C13        -3.8169  -11.0595   -0.4578 C.2       1 <0>        -0.1528
     23 C14        -4.6016  -10.1177   -0.9673 C.2       1 <0>        -0.0981
     24 S2         -5.0360   -9.0160    0.3610 S.3       1 <0>        -0.0658
     25 C15        -5.0493   -9.9897   -2.3965 C.3       1 <0>        -0.0487
     26 C16        -4.1619  -10.8808   -3.2739 C.3       1 <0>        -0.1165
     27 C17        -4.0667  -12.2642   -2.6225 C.3       1 <0>        -0.1201
     28 C18        -3.2433  -12.1675   -1.3388 C.3       1 <0>        -0.0563
     29 C19        -2.0630  -11.3369    1.2361 C.2       1 <0>         0.4667
     30 O3         -1.3418  -11.5423    0.2887 O.2       1 <0>        -0.4800
     31 O4         -1.5718  -11.4145    2.4829 O.3       1 <0>        -0.3540
     32 C20        -0.1877  -11.7443    2.6154 C.3       1 <0>         0.0575
     33 C21         0.1869  -11.7860    4.0983 C.3       1 <0>        -0.1527
     34 H4          1.0039    1.9031    0.0027 H         1 <0>         0.0497
     35 H5         -0.5459    1.8868   -0.8726 H         1 <0>         0.0502
     36 H6         -0.5289    1.8773    0.9072 H         1 <0>         0.0519
     37 H7         -1.0205   -0.3814    0.0098 H         1 <0>         0.0735
     38 H8          0.5123   -0.3556   -0.8948 H         1 <0>         0.0561
     39 H9          1.7647   -0.1336    1.2338 H         1 <0>         0.0692
     40 H10         0.2319   -0.1594    2.1383 H         1 <0>         0.0726
     41 H11         2.8964   -2.1665    1.3977 H         1 <0>         0.1118
     42 H12        -0.2976   -8.0137   -0.1976 H         1 <0>         0.0537
     43 H13        -1.1848   -6.7643   -1.1031 H         1 <0>         0.0616
     44 H14         0.3071   -6.3399   -0.2301 H         1 <0>         0.0994
     45 H15        -1.7551   -9.0889    1.9282 H         1 <0>         0.4047
     46 H16        -6.0878  -10.3091   -2.4841 H         1 <0>         0.0822
     47 H17        -4.9558   -8.9522   -2.7172 H         1 <0>         0.0856
     48 H18        -4.6029  -10.9729   -4.2665 H         1 <0>         0.0709
     49 H19        -3.1665  -10.4433   -3.3515 H         1 <0>         0.0686
     50 H20        -5.0681  -12.6239   -2.3861 H         1 <0>         0.0630
     51 H21        -3.5850  -12.9578   -3.3116 H         1 <0>         0.0665
     52 H22        -2.2074  -11.9363   -1.5867 H         1 <0>         0.0925
     53 H23        -3.2880  -13.1170   -0.8053 H         1 <0>         0.0640
     54 H24        -0.0020  -12.7200    2.1663 H         1 <0>         0.0685
     55 H25         0.4155  -10.9906    2.1093 H         1 <0>         0.0729
     56 H26         1.2426  -12.0375    4.1994 H         1 <0>         0.0812
     57 H27         0.0012  -10.8103    4.5475 H         1 <0>         0.0699
     58 H28        -0.4163  -12.5397    4.6044 H         1 <0>         0.0655
@<TRIPOS>BOND
     1    1    2 1
     2    1   34 1
     3    1   35 1
     4    1   36 1
     5    2    3 1
     6    2   37 1
     7    2   38 1
     8    3   39 1
     9    3   40 1
    10    3    4 1
    11    4    5 ar
    12    4   10 ar
    13    5    6 ar
    14    5   41 1
    15    6    8 ar
    16    6    7 1
    17    8    9 ar
    18    9   10 ar
    19    9   11 1
    20   11   12 1
    21   12   13 1
    22   12   14 1
    23   12   15 1
    24   14   42 1
    25   14   43 1
    26   14   44 1
    27   15   16 2
    28   15   17 am
    29   17   18 1
    30   17   45 1
    31   18   19 1
    32   18   24 1
    33   18   20 1
    34   20   21 1
    35   20   22 1
    36   20   29 1
    37   22   28 1
    38   22   23 2
    39   23   24 1
    40   23   25 1
    41   25   26 1
    42   25   46 1
    43   25   47 1
    44   26   27 1
    45   26   48 1
    46   26   49 1
    47   27   28 1
    48   27   50 1
    49   27   51 1
    50   28   52 1
    51   28   53 1
    52   29   30 2
    53   29   31 1
    54   31   32 1
    55   32   33 1
    56   32   54 1
    57   32   55 1
    58   33   56 1
    59   33   57 1
    60   33   58 1
@<TRIPOS>MOLECULE
ZINC04703564
   52    55     0     0     0
SMALL
USER_CHARGES
5-[(2-methoxy-1-naphthyl)methylamino]-2-morpholino-benzoic acid
@<TRIPOS>ATOM
      1 C1          2.3148    7.9659    0.0224 C.3       1 <0>         0.0259
      2 O1          1.0500    7.3008    0.0304 O.3       1 <0>        -0.3059
      3 C2          1.0674    5.9421    0.0234 C.ar      1 <0>         0.1492
      4 C3          2.2925    5.2677    0.0085 C.ar      1 <0>        -0.1928
      5 C4          2.3422    3.9088    0.0007 C.ar      1 <0>        -0.0601
      6 C5          1.1478    3.1673    0.0077 C.ar      1 <0>        -0.0861
      7 C6          1.1627    1.7621    0.0004 C.ar      1 <0>        -0.0965
      8 C7         -0.0126    1.0758    0.0080 C.ar      1 <0>        -0.1275
      9 C8         -1.2348    1.7456    0.0174 C.ar      1 <0>        -0.1041
     10 C9         -1.2883    3.1054    0.0301 C.ar      1 <0>        -0.1110
     11 C10        -0.0951    3.8486    0.0227 C.ar      1 <0>         0.0009
     12 C11        -0.1117    5.2530    0.0305 C.ar      1 <0>        -0.1387
     13 C12        -1.4231    5.9952    0.0460 C.3       1 <0>         0.1839
     14 N1         -1.8360    6.2283    1.4321 N.pl3     1 <0>        -0.7462
     15 C13        -3.0317    6.9049    1.7021 C.ar      1 <0>         0.1973
     16 C14        -3.8236    7.3602    0.6520 C.ar      1 <0>        -0.1905
     17 C15        -5.0061    8.0227    0.9068 C.ar      1 <0>        -0.1218
     18 C16        -5.4100    8.2508    2.2162 C.ar      1 <0>         0.0573
     19 C17        -4.6137    7.7996    3.2801 C.ar      1 <0>        -0.0433
     20 C18        -3.4194    7.1238    3.0117 C.ar      1 <0>        -0.1451
     21 C19        -5.0335    8.0372    4.6718 C.2       1 <0>         0.4860
     22 O2         -6.0721    8.6249    4.9013 O.co2     1 <0>        -0.5931
     23 N2         -6.6002    8.9238    2.4721 N.pl3     1 <0>        -0.4563
     24 C20        -7.7538    8.1638    1.9692 C.3       1 <0>         0.0325
     25 C21        -9.0431    8.9094    2.3237 C.3       1 <0>         0.0661
     26 O3         -8.9877   10.2316    1.7814 O.3       1 <0>        -0.3935
     27 C22        -7.8766   11.0002    2.2505 C.3       1 <0>         0.0662
     28 C23        -6.5755   10.2758    1.8952 C.3       1 <0>         0.0308
     29 H1          2.8835    7.6757    0.9059 H         1 <0>         0.0560
     30 H2          2.8675    7.6847   -0.8740 H         1 <0>         0.0541
     31 H3          2.1582    9.0445    0.0293 H         1 <0>         0.1014
     32 H4          3.2120    5.8341    0.0031 H         1 <0>         0.1315
     33 H5          3.2955    3.4012   -0.0104 H         1 <0>         0.1312
     34 H6          2.1022    1.2294   -0.0107 H         1 <0>         0.1251
     35 H7          0.0021   -0.0041    0.0020 H         1 <0>         0.1217
     36 H8         -2.1530    1.1770    0.0191 H         1 <0>         0.1237
     37 H9         -2.2426    3.6110    0.0416 H         1 <0>         0.1324
     38 H10        -1.3055    6.9515   -0.4638 H         1 <0>         0.0673
     39 H11        -2.1822    5.4024   -0.4644 H         1 <0>         0.0614
     40 H12        -1.2810    5.9139    2.1629 H         1 <0>         0.3972
     41 H13        -3.5126    7.1897   -0.3681 H         1 <0>         0.1102
     42 H14        -5.6172    8.3690    0.0864 H         1 <0>         0.1090
     43 H15        -2.8010    6.7739    3.8250 H         1 <0>         0.1290
     44 H16        -7.6784    8.0617    0.8866 H         1 <0>         0.0314
     45 H17        -7.7668    7.1754    2.4286 H         1 <0>         0.0810
     46 H18        -9.1454    8.9645    3.4075 H         1 <0>         0.0656
     47 H19        -9.8980    8.3794    1.9039 H         1 <0>         0.0902
     48 H20        -7.9450   11.1161    3.3322 H         1 <0>         0.0651
     49 H21        -7.8871   11.9823    1.7778 H         1 <0>         0.0902
     50 H22        -5.7284   10.8291    2.3007 H         1 <0>         0.0806
     51 H23        -6.4812   10.2074    0.8115 H         1 <0>         0.0319
     52 O4         -4.2657    7.6027    5.6907 O.co2     1 <0>        -0.7710
@<TRIPOS>BOND
     1    1    2 1
     2    1   29 1
     3    1   30 1
     4    1   31 1
     5    2    3 1
     6    3   12 ar
     7    3    4 ar
     8    4    5 ar
     9    4   32 1
    10    5    6 ar
    11    5   33 1
    12    6   11 ar
    13    6    7 ar
    14    7    8 ar
    15    7   34 1
    16    8    9 ar
    17    8   35 1
    18    9   10 ar
    19    9   36 1
    20   10   11 ar
    21   10   37 1
    22   11   12 ar
    23   12   13 1
    24   13   14 1
    25   13   38 1
    26   13   39 1
    27   14   15 1
    28   14   40 1
    29   15   20 ar
    30   15   16 ar
    31   16   17 ar
    32   16   41 1
    33   17   18 ar
    34   17   42 1
    35   18   19 ar
    36   18   23 1
    37   19   20 ar
    38   19   21 1
    39   20   43 1
    40   21   22 2
    41   21   52 1
    42   23   28 1
    43   23   24 1
    44   24   25 1
    45   24   44 1
    46   24   45 1
    47   25   26 1
    48   25   46 1
    49   25   47 1
    50   26   27 1
    51   27   28 1
    52   27   48 1
    53   27   49 1
    54   28   50 1
    55   28   51 1
@<TRIPOS>MOLECULE
ZINC13393078
   42    44     0     0     0
SMALL
USER_CHARGES
5-[[[5-(2,5-dichlorophenyl)furan-2-carbonyl]amino]methyl]-2-methoxy-benzoic acid
@<TRIPOS>ATOM
      1 C1         -7.2696    5.1290    1.3768 C.3       1 <0>         0.0213
      2 O1         -6.7853    4.7281    0.0935 O.3       1 <0>        -0.2704
      3 C2         -5.7429    3.8606    0.0722 C.ar      1 <0>         0.1676
      4 C3         -5.1936    3.4020    1.2605 C.ar      1 <0>        -0.2334
      5 C4         -4.1360    2.5149    1.2372 C.ar      1 <0>        -0.0609
      6 C5         -3.6079    2.0849    0.0305 C.ar      1 <0>        -0.1794
      7 C6         -4.1407    2.5298   -1.1595 C.ar      1 <0>        -0.0169
      8 C7         -5.2153    3.4235   -1.1509 C.ar      1 <0>        -0.1498
      9 C8         -5.7900    3.9041   -2.4203 C.2       1 <0>         0.4907
     10 O2         -6.7242    4.6811   -2.4087 O.co2     1 <0>        -0.6124
     11 C9         -2.4493    1.1213    0.0198 C.3       1 <0>         0.1725
     12 N1         -1.1906    1.8710    0.0179 N.am      1 <0>        -0.7086
     13 C10        -0.0144    1.2130    0.0087 C.2       1 <0>         0.6000
     14 O3          0.0021   -0.0041    0.0020 O.2       1 <0>        -0.5212
     15 C11         1.2442    1.9627    0.0007 C.2       1 <0>        -0.0598
     16 C12         2.5099    1.4185   -0.0088 C.2       1 <0>        -0.1202
     17 C13         3.4095    2.4893   -0.0174 C.2       1 <0>        -0.1752
     18 C14         2.6686    3.6362   -0.0036 C.2       1 <0>         0.0392
     19 O4          1.3660    3.3070    0.0072 O.3       1 <0>        -0.1472
     20 C15         3.2092    5.0104   -0.0017 C.ar      1 <0>        -0.0014
     21 C16         2.7345    5.9522   -0.9171 C.ar      1 <0>        -0.0716
     22 C17         3.2440    7.2349   -0.9094 C.ar      1 <0>        -0.0314
     23 C18         4.2239    7.5890    0.0034 C.ar      1 <0>        -0.0865
     24 C19         4.6983    6.6616    0.9130 C.ar      1 <0>        -0.0966
     25 C20         4.1941    5.3759    0.9198 C.ar      1 <0>        -0.0110
     26 Cl1         4.7862    4.2151    2.0667 Cl        1 <0>        -0.0442
     27 Cl2         2.6558    8.4071   -2.0468 Cl        1 <0>        -0.0480
     28 H1         -7.6076    4.2514    1.9280 H         1 <0>         0.0484
     29 H2         -6.4690    5.6195    1.9303 H         1 <0>         0.0481
     30 H3         -8.1017    5.8217    1.2510 H         1 <0>         0.0955
     31 H4         -5.5968    3.7358    2.2052 H         1 <0>         0.1244
     32 H5         -3.7148    2.1575    2.1652 H         1 <0>         0.1186
     33 H6         -3.7289    2.1882   -2.0976 H         1 <0>         0.1383
     34 H7         -2.5028    0.4988   -0.8734 H         1 <0>         0.0808
     35 H8         -2.4943    0.4891    0.9065 H         1 <0>         0.0767
     36 H9         -1.2038    2.8409    0.0232 H         1 <0>         0.4080
     37 H10         2.7593    0.3677   -0.0117 H         1 <0>         0.1659
     38 H11         4.4873    2.4218   -0.0280 H         1 <0>         0.1595
     39 H12         1.9708    5.6774   -1.6295 H         1 <0>         0.1516
     40 H13         4.6191    8.5941    0.0049 H         1 <0>         0.1484
     41 H14         5.4622    6.9445    1.6221 H         1 <0>         0.1508
     42 O5         -5.2795    3.4818   -3.5937 O.co2     1 <0>        -0.7604
@<TRIPOS>BOND
     1    1    2 1
     2    1   28 1
     3    1   29 1
     4    1   30 1
     5    2    3 1
     6    3    8 ar
     7    3    4 ar
     8    4    5 ar
     9    4   31 1
    10    5    6 ar
    11    5   32 1
    12    6    7 ar
    13    6   11 1
    14    7    8 ar
    15    7   33 1
    16    8    9 1
    17    9   10 2
    18    9   42 1
    19   11   12 1
    20   11   34 1
    21   11   35 1
    22   12   13 am
    23   12   36 1
    24   13   14 2
    25   13   15 1
    26   15   19 1
    27   15   16 2
    28   16   17 1
    29   16   37 1
    30   17   18 2
    31   17   38 1
    32   18   19 1
    33   18   20 1
    34   20   25 ar
    35   20   21 ar
    36   21   22 ar
    37   21   39 1
    38   22   23 ar
    39   22   27 1
    40   23   24 ar
    41   23   40 1
    42   24   25 ar
    43   24   41 1
    44   25   26 1
@<TRIPOS>MOLECULE
ZINC36050672
   52    54     0     0     0
SMALL
USER_CHARGES

@<TRIPOS>ATOM
      1 C1         -1.2181    1.3446    0.3426 C.3       1 <0>        -0.1204
      2 C2         -0.4593    0.0556    0.1592 C.ar      1 <0>        -0.0433
      3 C3         -0.4854   -0.5944   -1.0608 C.ar      1 <0>        -0.1280
      4 C4          0.2105   -1.7766   -1.2290 C.ar      1 <0>        -0.1182
      5 C5          0.9331   -2.3091   -0.1774 C.ar      1 <0>        -0.1304
      6 C6          0.9599   -1.6589    1.0420 C.ar      1 <0>        -0.0900
      7 C7          0.2673   -0.4740    1.2090 C.ar      1 <0>        -0.0722
      8 C8          0.3008    0.2377    2.5369 C.3       1 <0>         0.2534
      9 H1         -0.4225    1.0521    2.4960 H         1 <0>         0.0817
     10 C9          1.6759    0.8443    2.7054 C.2       1 <0>        -0.3940
     11 C10         2.4147    0.4686    3.8110 C.2       1 <0>         0.3028
     12 N1          1.9225   -0.3947    4.6844 N.2       1 <0>        -0.5976
     13 C11         0.7352   -0.9583    4.5966 C.2       1 <0>         0.3188
     14 N2         -0.1479   -0.7210    3.5816 N.pl3     1 <0>        -0.5119
     15 C12        -1.3539   -1.3914    3.6315 C.2       1 <0>         0.2324
     16 C13        -1.5652   -2.2247    4.6741 C.2       1 <0>        -0.3078
     17 S1         -0.0488   -2.0595    5.5914 S.3       1 <0>         0.1420
     18 C14        -2.3720   -1.2049    2.5878 C.2       1 <0>        -0.4735
     19 C15        -3.5818   -1.7829    2.7162 C.2       1 <0>         0.5022
     20 O1         -3.8993   -2.4444    3.8558 O.3       1 <0>        -0.7048
     21 N3         -4.5011   -1.7014    1.6840 N.pl3     1 <0>        -0.7500
     22 C16        -5.8540   -2.2338    1.8643 C.3       1 <0>         0.1488
     23 C17        -6.7634   -1.1374    2.4226 C.3       1 <0>        -0.1579
     24 C18        -6.3983   -2.7104    0.5161 C.3       1 <0>        -0.1568
     25 C19         3.7906    1.0455    4.0230 C.3       1 <0>        -0.1167
     26 C20         2.1837    1.7560    1.7719 C.2       1 <0>         0.5367
     27 O2          3.3265    2.1656    1.8796 O.2       1 <0>        -0.5499
     28 O3          1.4066    2.1817    0.7515 O.3       1 <0>        -0.3528
     29 C21         2.0219    3.0246   -0.2246 C.3       1 <0>         0.0387
     30 H2         -0.5494    2.1877    0.1689 H         1 <0>         0.0844
     31 H3         -2.0443    1.3840   -0.3672 H         1 <0>         0.0573
     32 H4         -1.6093    1.3945    1.3588 H         1 <0>         0.0688
     33 H5         -1.0498   -0.1784   -1.8822 H         1 <0>         0.1156
     34 H6          0.1895   -2.2847   -2.1818 H         1 <0>         0.1140
     35 H7          1.4763   -3.2333   -0.3086 H         1 <0>         0.1133
     36 H8          1.5241   -2.0750    1.8635 H         1 <0>         0.1038
     37 H9         -2.4301   -2.8328    4.8942 H         1 <0>         0.2341
     38 H10        -2.1500   -0.6045    1.7180 H         1 <0>         0.0964
     39 H11        -4.2494   -1.2918    0.8416 H         1 <0>         0.3829
     40 H12        -5.8249   -3.0715    2.5610 H         1 <0>         0.0832
     41 H13        -7.7460   -1.5561    2.6400 H         1 <0>         0.0494
     42 H14        -6.3287   -0.7361    3.3381 H         1 <0>         0.0585
     43 H15        -6.8632   -0.3388    1.6875 H         1 <0>         0.0441
     44 H16        -5.7505   -3.4915    0.1183 H         1 <0>         0.0551
     45 H17        -7.4049   -3.1065    0.6502 H         1 <0>         0.0591
     46 H18        -6.4274   -1.8727   -0.1806 H         1 <0>         0.0506
     47 H19         3.7064    2.0148    4.5145 H         1 <0>         0.0785
     48 H20         4.3752    0.3707    4.6481 H         1 <0>         0.0643
     49 H21         4.2854    1.1685    3.0596 H         1 <0>         0.1128
     50 H22         2.7948    2.4656   -0.7521 H         1 <0>         0.0501
     51 H23         1.2700    3.3652   -0.9364 H         1 <0>         0.0890
     52 H24         2.4704    3.8861    0.2702 H         1 <0>         0.0536
@<TRIPOS>BOND
     1    1    2 1
     2    1   30 1
     3    1   31 1
     4    1   32 1
     5    2    7 ar
     6    2    3 ar
     7    3    4 ar
     8    3   33 1
     9    4    5 ar
    10    4   34 1
    11    5    6 ar
    12    5   35 1
    13    6    7 ar
    14    6   36 1
    15    7    8 1
    16    8    9 1
    17    8   14 1
    18    8   10 1
    19   10   11 2
    20   10   26 1
    21   11   12 1
    22   11   25 1
    23   12   13 2
    24   13   17 1
    25   13   14 1
    26   14   15 1
    27   15   16 2
    28   15   18 1
    29   16   17 1
    30   16   37 1
    31   18   19 2
    32   18   38 1
    33   19   20 1
    34   19   21 1
    35   21   22 1
    36   21   39 1
    37   22   23 1
    38   22   24 1
    39   22   40 1
    40   23   41 1
    41   23   42 1
    42   23   43 1
    43   24   44 1
    44   24   45 1
    45   24   46 1
    46   25   47 1
    47   25   48 1
    48   25   49 1
    49   26   27 2
    50   26   28 1
    51   28   29 1
    52   29   50 1
    53   29   51 1
    54   29   52 1
@<TRIPOS>MOLECULE
ZINC39887218
   51    53     0     0     0
SMALL
USER_CHARGES

@<TRIPOS>ATOM
      1 C1          1.0061    0.6049   -0.9779 C.3       1 <0>        -0.1474
      2 C2          0.0014   -0.0035    0.0026 C.3       1 <0>        -0.0806
      3 C3          0.7303   -0.5027    1.2235 C.ar      1 <0>        -0.0872
      4 C4          1.2086   -1.7997    1.2592 C.ar      1 <0>        -0.1147
      5 C5          1.8774   -2.2602    2.3764 C.ar      1 <0>        -0.0714
      6 C6          2.0693   -1.4190    3.4648 C.ar      1 <0>         0.1511
      7 C7          1.5877   -0.1168    3.4257 C.ar      1 <0>        -0.1206
      8 C8          0.9243    0.3390    2.3034 C.ar      1 <0>        -0.1173
      9 N1          2.7456   -1.8822    4.5976 N.pl3     1 <0>        -0.5697
     10 C9          2.0380   -2.0548    5.8707 C.3       1 <0>         0.4303
     11 H1          1.0739   -1.5488    5.8211 H         1 <0>         0.1117
     12 N2          2.8324   -1.4833    6.9597 N.am      1 <0>        -0.7435
     13 C10         4.1786   -1.4715    6.8940 C.2       1 <0>         0.6003
     14 O1          4.8332   -1.0333    7.8227 O.2       1 <0>        -0.5662
     15 C11         4.8498   -1.9892    5.6994 C.2       1 <0>        -0.3175
     16 C12         4.0824   -2.1888    4.5365 C.2       1 <0>         0.4491
     17 S1          4.8091   -2.8046    3.0541 S.3       1 <0>        -0.7830
     18 C13         6.2500   -2.2889    5.7148 C.1       1 <0>         0.3364
     19 N3          7.3608   -2.5267    5.7271 N.1       1 <0>        -0.4963
     20 C14         1.8205   -3.5237    6.1280 C.ar      1 <0>        -0.1190
     21 C15         1.6800   -4.3967    5.0653 C.ar      1 <0>        -0.0802
     22 C16         1.4803   -5.7450    5.2961 C.ar      1 <0>        -0.1726
     23 C17         1.4210   -6.2242    6.5949 C.ar      1 <0>         0.1069
     24 C18         1.5629   -5.3456    7.6646 C.ar      1 <0>         0.0915
     25 C19         1.7676   -3.9960    7.4262 C.ar      1 <0>        -0.1422
     26 O2          1.5054   -5.8111    8.9411 O.3       1 <0>        -0.3081
     27 C20         1.6592   -4.8518    9.9890 C.3       1 <0>         0.0261
     28 O3          1.2241   -7.5502    6.8237 O.3       1 <0>        -0.3068
     29 C21         1.0864   -8.3929    5.6778 C.3       1 <0>         0.0520
     30 C22         0.8738   -9.8388    6.1306 C.3       1 <0>        -0.1498
     31 H2          1.7312   -0.1537   -1.2725 H         1 <0>         0.0573
     32 H3          0.4789    0.9659   -1.8610 H         1 <0>         0.0531
     33 H4          1.5239    1.4358   -0.4988 H         1 <0>         0.0553
     34 H5         -0.7237    0.7551    0.2973 H         1 <0>         0.0672
     35 H6         -0.5164   -0.8344   -0.4765 H         1 <0>         0.0684
     36 H7          1.0587   -2.4534    0.4127 H         1 <0>         0.1199
     37 H8          2.2504   -3.2734    2.4037 H         1 <0>         0.1381
     38 H9          1.7350    0.5397    4.2706 H         1 <0>         0.1200
     39 H10         0.5531    1.3527    2.2708 H         1 <0>         0.1188
     40 H11         2.3858   -1.1094    7.7353 H         1 <0>         0.4010
     41 H12         1.7260   -4.0245    4.0525 H         1 <0>         0.1350
     42 H13         1.3701   -6.4248    4.4641 H         1 <0>         0.1340
     43 H14         1.8818   -3.3125    8.2546 H         1 <0>         0.1355
     44 H15         1.5932   -5.3542   10.9541 H         1 <0>         0.0972
     45 H16         2.6309   -4.3665    9.8977 H         1 <0>         0.0566
     46 H17         0.8707   -4.1029    9.9146 H         1 <0>         0.0527
     47 H18         0.2296   -8.0670    5.0881 H         1 <0>         0.0602
     48 H19         1.9898   -8.3313    5.0709 H         1 <0>         0.0623
     49 H20         0.7687  -10.4815    5.2565 H         1 <0>         0.0760
     50 H21         1.7306  -10.1646    6.7203 H         1 <0>         0.0655
     51 H22        -0.0296   -9.9003    6.7375 H         1 <0>         0.0643
@<TRIPOS>BOND
     1    1    2 1
     2    1   31 1
     3    1   32 1
     4    1   33 1
     5    2    3 1
     6    2   34 1
     7    2   35 1
     8    3    8 ar
     9    3    4 ar
    10    4    5 ar
    11    4   36 1
    12    5    6 ar
    13    5   37 1
    14    6    7 ar
    15    6    9 1
    16    7    8 ar
    17    7   38 1
    18    8   39 1
    19    9   16 1
    20    9   10 1
    21   10   11 1
    22   10   12 1
    23   10   20 1
    24   12   13 am
    25   12   40 1
    26   13   14 2
    27   13   15 1
    28   15   16 2
    29   15   18 1
    30   16   17 1
    31   18   19 3
    32   20   25 ar
    33   20   21 ar
    34   21   22 ar
    35   21   41 1
    36   22   23 ar
    37   22   42 1
    38   23   24 ar
    39   23   28 1
    40   24   25 ar
    41   24   26 1
    42   25   43 1
    43   26   27 1
    44   27   44 1
    45   27   45 1
    46   27   46 1
    47   28   29 1
    48   29   30 1
    49   29   47 1
    50   29   48 1
    51   30   49 1
    52   30   50 1
    53   30   51 1
@<TRIPOS>MOLECULE
ZINC50974106
   47    48     0     0     0
SMALL
USER_CHARGES

@<TRIPOS>ATOM
      1 C1          0.0501    0.8245    2.1586 C.3       1 <0>         0.0996
      2 N1         -0.0242   -0.1505    1.0676 N.pl3     1 <0>        -0.6410
      3 C2          1.1544   -0.4124    0.2379 C.3       1 <0>         0.0979
      4 C3         -1.2136   -0.8273    0.8197 C.ar      1 <0>         0.2192
      5 C4         -1.2802   -1.7579   -0.2144 C.ar      1 <0>        -0.2244
      6 C5         -2.4462   -2.4251   -0.4616 C.ar      1 <0>        -0.0604
      7 C6         -3.5765   -2.1720    0.3271 C.ar      1 <0>        -0.1101
      8 C7         -3.5047   -1.2348    1.3665 C.ar      1 <0>         0.0471
      9 C8         -2.3328   -0.5766    1.6099 C.ar      1 <0>        -0.2105
     10 C9         -4.8315   -2.8858    0.0652 C.2       1 <0>        -0.0480
     11 C10        -6.0133   -2.2248    0.1294 C.2       1 <0>        -0.1857
     12 C11        -6.0323   -0.8154    0.1532 C.2       1 <0>         0.3670
     13 O1         -4.8863   -0.1213   -0.0220 O.3       1 <0>        -0.5748
     14 C12        -7.2366   -0.1360    0.3582 C.2       1 <0>        -0.4206
     15 C13        -8.4511   -0.8716    0.5439 C.1       1 <0>         0.2991
     16 N2         -9.4145   -1.4552    0.6912 N.1       1 <0>        -0.5437
     17 C14        -7.2563    1.3275    0.3830 C.2       1 <0>         0.5865
     18 O2         -6.2236    1.9530    0.2251 O.2       1 <0>        -0.5238
     19 N3         -8.4174    1.9826    0.5806 N.am      1 <0>        -0.6934
     20 C15        -8.4242    3.3789    0.6876 C.ar      1 <0>         0.1562
     21 C16        -9.3040    4.0043    1.5613 C.ar      1 <0>        -0.1187
     22 C17        -9.3105    5.3812    1.6667 C.ar      1 <0>        -0.1776
     23 C18        -8.4383    6.1401    0.9006 C.ar      1 <0>         0.1002
     24 C19        -7.5585    5.5163    0.0268 C.ar      1 <0>        -0.0446
     25 C20        -7.5474    4.1381   -0.0756 C.ar      1 <0>        -0.0788
     26 Cl1        -6.4675    6.4668   -0.9323 Cl        1 <0>        -0.0631
     27 O3         -8.4455    7.4961    1.0050 O.3       1 <0>        -0.3098
     28 C21        -9.3772    8.0711    1.9234 C.3       1 <0>         0.0284
     29 H1          1.0532    1.2490    2.1989 H         1 <0>         0.0651
     30 H2         -0.6744    1.6201    1.9848 H         1 <0>         0.0540
     31 H3         -0.1733    0.3298    3.1038 H         1 <0>         0.0501
     32 H4          1.7360   -1.2224    0.6782 H         1 <0>         0.0409
     33 H5          0.8366   -0.6969   -0.7652 H         1 <0>         0.0671
     34 H6          1.7675    0.4871    0.1833 H         1 <0>         0.0591
     35 H7         -0.4087   -1.9521   -0.8220 H         1 <0>         0.1096
     36 H8         -2.4970   -3.1463   -1.2640 H         1 <0>         0.1093
     37 H9         -4.3733   -1.0363    1.9767 H         1 <0>         0.1119
     38 H10        -2.2752    0.1426    2.4135 H         1 <0>         0.1098
     39 H11        -4.8137   -3.9377   -0.1787 H         1 <0>         0.1125
     40 H12        -6.9403   -2.7779    0.1622 H         1 <0>         0.1096
     41 H13        -9.2484    1.4869    0.6487 H         1 <0>         0.4006
     42 H14        -9.9834    3.4138    2.1582 H         1 <0>         0.1297
     43 H15        -9.9953    5.8673    2.3458 H         1 <0>         0.1341
     44 H16        -6.8602    3.6522   -0.7523 H         1 <0>         0.1603
     45 H17        -9.2788    9.1566    1.9090 H         1 <0>         0.0969
     46 H18       -10.3909    7.7943    1.6337 H         1 <0>         0.0532
     47 H19        -9.1726    7.7010    2.9280 H         1 <0>         0.0537
@<TRIPOS>BOND
     1    1    2 1
     2    1   29 1
     3    1   30 1
     4    1   31 1
     5    2    3 1
     6    2    4 1
     7    3   32 1
     8    3   33 1
     9    3   34 1
    10    4    9 ar
    11    4    5 ar
    12    5    6 ar
    13    5   35 1
    14    6    7 ar
    15    6   36 1
    16    7    8 ar
    17    7   10 1
    18    8    9 ar
    19    8   37 1
    20    9   38 1
    21   10   11 2
    22   10   39 1
    23   11   12 1
    24   11   40 1
    25   12   13 1
    26   12   14 2
    27   14   15 1
    28   14   17 1
    29   15   16 3
    30   17   18 2
    31   17   19 am
    32   19   20 1
    33   19   41 1
    34   20   25 ar
    35   20   21 ar
    36   21   22 ar
    37   21   42 1
    38   22   23 ar
    39   22   43 1
    40   23   24 ar
    41   23   27 1
    42   24   25 ar
    43   24   26 1
    44   25   44 1
    45   27   28 1
    46   28   45 1
    47   28   46 1
    48   28   47 1
@<TRIPOS>MOLECULE
ZINC02109067
   54    56     0     0     0
SMALL
USER_CHARGES
3,4-dimethyl-6-[(8-propoxycarbonyl-6-thiabicyclo[3.3.0]octa-7,9-dien-7-yl)carbamoyl]cyclohex-3-ene-1-carboxylic acid
@<TRIPOS>ATOM
      1 C1         -5.3088    4.6831   -4.4038 C.3       1 <0>        -0.1497
      2 C2         -5.3265    3.8879   -3.0969 C.3       1 <0>        -0.1236
      3 C3         -5.0460    2.4133   -3.3933 C.3       1 <0>         0.0609
      4 O1         -5.0629    1.6586   -2.1529 O.3       1 <0>        -0.3514
      5 C4         -4.8314    0.3326   -2.2398 C.2       1 <0>         0.5388
      6 O2         -4.6211   -0.1784   -3.3234 O.2       1 <0>        -0.4995
      7 C5         -4.8331   -0.4918   -1.0295 C.2       1 <0>        -0.2299
      8 C6         -6.0600   -1.1235   -0.5439 C.2       1 <0>        -0.0889
      9 C7         -5.9214   -1.8541    0.5766 C.2       1 <0>        -0.2554
     10 S1         -4.1997   -1.7223    0.9928 S.3       1 <0>         0.2931
     11 C8         -3.6730   -0.7017   -0.3019 C.2       1 <0>         0.1102
     12 N1         -2.3990   -0.2171   -0.5531 N.am      1 <0>        -0.6291
     13 C9         -1.3831   -0.5310    0.2752 C.2       1 <0>         0.5235
     14 O3         -1.5838   -1.2375    1.2402 O.2       1 <0>        -0.4479
     15 C10         0.0021   -0.0041    0.0020 C.3       1 <0>        -0.0753
     16 H1          0.3447   -0.3605   -0.9694 H         1 <0>         0.1012
     17 C11        -0.0187    1.5260    0.0104 C.3       1 <0>        -0.0697
     18 C12         1.3830    2.0620   -0.0001 C.2       1 <0>        -0.1467
     19 C13         2.4293    1.3623    0.3020 C.2       1 <0>        -0.1109
     20 C14         2.3879   -0.0853    0.6952 C.3       1 <0>        -0.0607
     21 C15         0.9654   -0.4822    1.0958 C.3       1 <0>        -0.1099
     22 H2          0.7042   -0.0134    2.0446 H         1 <0>         0.0769
     23 C16         0.8762   -1.9806    1.2297 C.2       1 <0>         0.4779
     24 O4          0.1207   -2.6063    0.5243 O.co2     1 <0>        -0.6283
     25 C17         3.7725    2.0440    0.2560 C.3       1 <0>        -0.1229
     26 C18         1.5850    3.5044   -0.3869 C.3       1 <0>        -0.1160
     27 C19        -7.2221   -2.4742    1.0104 C.3       1 <0>        -0.0272
     28 C20        -8.1303   -2.3857   -0.2359 C.3       1 <0>        -0.1155
     29 C21        -7.5244   -1.1797   -0.9810 C.3       1 <0>        -0.0589
     30 H3         -5.5086    5.7336   -4.1927 H         1 <0>         0.0643
     31 H4         -4.3304    4.5868   -4.8745 H         1 <0>         0.0583
     32 H5         -6.0748    4.2954   -5.0754 H         1 <0>         0.0573
     33 H6         -6.3050    3.9841   -2.6262 H         1 <0>         0.0735
     34 H7         -4.5606    4.2755   -2.4252 H         1 <0>         0.0745
     35 H8         -4.0676    2.3170   -3.8639 H         1 <0>         0.0693
     36 H9         -5.8120    2.0256   -4.0649 H         1 <0>         0.0686
     37 H10        -2.2385    0.3480   -1.3250 H         1 <0>         0.4120
     38 H11        -0.5494    1.8850   -0.8714 H         1 <0>         0.0678
     39 H12        -0.5324    1.8755    0.9060 H         1 <0>         0.0747
     40 H13         3.0598   -0.2503    1.5375 H         1 <0>         0.0820
     41 H14         2.7094   -0.6961   -0.1484 H         1 <0>         0.0705
     42 H15         4.2000    1.9375   -0.7410 H         1 <0>         0.0639
     43 H16         3.6512    3.1020    0.4883 H         1 <0>         0.0638
     44 H17         4.4379    1.5853    0.9874 H         1 <0>         0.0623
     45 H18         1.5349    4.1300    0.5043 H         1 <0>         0.0613
     46 H19         2.5609    3.6210   -0.8581 H         1 <0>         0.0648
     47 H20         0.8054    3.8056   -1.0865 H         1 <0>         0.0558
     48 H21        -7.0702   -3.5148    1.2970 H         1 <0>         0.0773
     49 H22        -7.6538   -1.9118    1.8383 H         1 <0>         0.0815
     50 H23        -8.0576   -3.2922   -0.8368 H         1 <0>         0.0754
     51 H24        -9.1644   -2.1902    0.0481 H         1 <0>         0.0806
     52 H25        -8.0389   -0.2624   -0.6949 H         1 <0>         0.0785
     53 H26        -7.5909   -1.3299   -2.0586 H         1 <0>         0.0688
     54 O5          1.6362   -2.6201    2.1326 O.co2     1 <0>        -0.7720
@<TRIPOS>BOND
     1    1    2 1
     2    1   30 1
     3    1   31 1
     4    1   32 1
     5    2    3 1
     6    2   33 1
     7    2   34 1
     8    3    4 1
     9    3   35 1
    10    3   36 1
    11    4    5 1
    12    5    6 2
    13    5    7 1
    14    7   11 2
    15    7    8 1
    16    8   29 1
    17    8    9 2
    18    9   10 1
    19    9   27 1
    20   10   11 1
    21   11   12 1
    22   12   13 am
    23   12   37 1
    24   13   14 2
    25   13   15 1
    26   15   16 1
    27   15   21 1
    28   15   17 1
    29   17   18 1
    30   17   38 1
    31   17   39 1
    32   18   19 2
    33   18   26 1
    34   19   20 1
    35   19   25 1
    36   20   21 1
    37   20   40 1
    38   20   41 1
    39   21   22 1
    40   21   23 1
    41   23   24 2
    42   23   54 1
    43   25   42 1
    44   25   43 1
    45   25   44 1
    46   26   45 1
    47   26   46 1
    48   26   47 1
    49   27   28 1
    50   27   48 1
    51   27   49 1
    52   28   29 1
    53   28   50 1
    54   28   51 1
    55   29   52 1
    56   29   53 1
@<TRIPOS>MOLECULE
ZINC13396811
   48    50     0     0     0
SMALL
USER_CHARGES
(E)-3-[4-[[2-[[4-methyl-5-(o-tolyl)-1,2,4-triazol-3-yl]sulfanyl]acetyl]amino]phenyl]prop-2-enoic acid
@<TRIPOS>ATOM
      1 C1          3.1218    0.8766   -5.9416 C.3       1 <0>        -0.1150
      2 C2          1.9039    0.6594   -6.8022 C.ar      1 <0>        -0.0389
      3 C3          2.0357    0.5466   -8.1710 C.ar      1 <0>        -0.1198
      4 C4          0.9180    0.3529   -8.9629 C.ar      1 <0>        -0.0987
      5 C5         -0.3378    0.2648   -8.3883 C.ar      1 <0>        -0.1240
      6 C6         -0.4828    0.3706   -7.0207 C.ar      1 <0>        -0.0962
      7 C7          0.6409    0.5665   -6.2159 C.ar      1 <0>        -0.0235
      8 C8          0.4929    0.6813   -4.7494 C.2       1 <0>         0.2243
      9 N1          1.1927    0.0409   -3.8421 N.2       1 <0>        -0.2613
     10 N2          0.8041    0.3833   -2.6660 N.2       1 <0>        -0.2934
     11 C9         -0.1741    1.2571   -2.7505 C.2       1 <0>         0.1435
     12 N3         -0.4041    1.4799   -4.0781 N.pl3     1 <0>        -0.4569
     13 C10        -1.3985    2.3815   -4.6651 C.3       1 <0>         0.0651
     14 S1         -1.0252    2.0069   -1.4021 S.3       1 <0>         0.0905
     15 C11        -0.1699    1.2205   -0.0143 C.3       1 <0>        -0.1468
     16 C12        -0.7477    1.7250    1.2829 C.2       1 <0>         0.5303
     17 O1         -1.6490    2.5365    1.2702 O.2       1 <0>        -0.5038
     18 N4         -0.2629    1.2746    2.4570 N.am      1 <0>        -0.6593
     19 C13        -0.8609    1.6661    3.6546 C.ar      1 <0>         0.1182
     20 C14        -1.3699    2.9546    3.7871 C.ar      1 <0>        -0.1115
     21 C15        -1.9651    3.3438    4.9652 C.ar      1 <0>        -0.1020
     22 C16        -2.0489    2.4445    6.0351 C.ar      1 <0>        -0.0423
     23 C17        -1.5306    1.1509    5.8990 C.ar      1 <0>        -0.0981
     24 C18        -0.9415    0.7690    4.7155 C.ar      1 <0>        -0.1365
     25 C19        -2.6784    2.8572    7.2970 C.2       1 <0>        -0.1159
     26 C20        -3.1779    4.1058    7.4261 C.2       1 <0>        -0.1401
     27 C21        -3.7853    4.5040    8.6437 C.2       1 <0>         0.4689
     28 O2         -3.8568    3.7213    9.5722 O.co2     1 <0>        -0.6374
     29 H1          3.5325   -0.0879   -5.6431 H         1 <0>         0.0828
     30 H2          3.8712    1.4316   -6.5061 H         1 <0>         0.0675
     31 H3          2.8427    1.4433   -5.0534 H         1 <0>         0.0652
     32 H4          3.0130    0.6138   -8.6257 H         1 <0>         0.1309
     33 H5          1.0260    0.2698  -10.0343 H         1 <0>         0.1282
     34 H6         -1.2063    0.1132   -9.0121 H         1 <0>         0.1296
     35 H7         -1.4634    0.3016   -6.5734 H         1 <0>         0.1241
     36 H8         -0.9880    3.3898   -4.7187 H         1 <0>         0.0895
     37 H9         -1.6524    2.0387   -5.6682 H         1 <0>         0.0979
     38 H10        -2.2950    2.3867   -4.0451 H         1 <0>         0.0973
     39 H11        -0.2988    0.1397   -0.0734 H         1 <0>         0.1305
     40 H12         0.8920    1.4627   -0.0576 H         1 <0>         0.1305
     41 H13         0.5019    0.6781    2.4690 H         1 <0>         0.4125
     42 H14        -1.3015    3.6488    2.9625 H         1 <0>         0.1363
     43 H15        -2.3632    4.3427    5.0658 H         1 <0>         0.1324
     44 H16        -1.5928    0.4541    6.7218 H         1 <0>         0.1299
     45 H17        -0.5415   -0.2286    4.6096 H         1 <0>         0.1239
     46 H18        -2.7419    2.1623    8.1214 H         1 <0>         0.1292
     47 H19        -3.1144    4.8007    6.6018 H         1 <0>         0.1070
     48 O3         -4.2841    5.7511    8.7726 O.co2     1 <0>        -0.7647
@<TRIPOS>BOND
     1    1    2 1
     2    1   29 1
     3    1   30 1
     4    1   31 1
     5    2    7 ar
     6    2    3 ar
     7    3    4 ar
     8    3   32 1
     9    4    5 ar
    10    4   33 1
    11    5    6 ar
    12    5   34 1
    13    6    7 ar
    14    6   35 1
    15    7    8 1
    16    8   12 1
    17    8    9 2
    18    9   10 1
    19   10   11 2
    20   11   12 1
    21   11   14 1
    22   12   13 1
    23   13   36 1
    24   13   37 1
    25   13   38 1
    26   14   15 1
    27   15   16 1
    28   15   39 1
    29   15   40 1
    30   16   17 2
    31   16   18 am
    32   18   19 1
    33   18   41 1
    34   19   24 ar
    35   19   20 ar
    36   20   21 ar
    37   20   42 1
    38   21   22 ar
    39   21   43 1
    40   22   23 ar
    41   22   25 1
    42   23   24 ar
    43   23   44 1
    44   24   45 1
    45   25   26 2
    46   25   46 1
    47   26   27 1
    48   26   47 1
    49   27   28 2
    50   27   48 1
@<TRIPOS>MOLECULE
ZINC35703546
   49    51     0     0     0
SMALL
USER_CHARGES

@<TRIPOS>ATOM
      1 C1         -3.3684    2.5969    0.0411 C.3       1 <0>        -0.1624
      2 C2         -4.0580    1.2367    0.1650 C.3       1 <0>         0.1339
      3 N1         -3.0514    0.1732    0.1228 N.pl3     1 <0>        -0.7561
      4 C3         -3.4276   -1.1445    0.3214 C.2       1 <0>         0.5034
      5 O1         -4.7386   -1.4625    0.4526 O.3       1 <0>        -0.7011
      6 C4         -2.4908   -2.1102    0.3844 C.2       1 <0>        -0.4675
      7 C5         -2.8943   -3.5210    0.4707 C.2       1 <0>         0.2319
      8 C6         -4.1903   -3.8697    0.6281 C.2       1 <0>        -0.3012
      9 S1         -4.0914   -5.6482    0.6679 S.3       1 <0>         0.1588
     10 C7         -2.4317   -5.8176    0.4840 C.2       1 <0>         0.3182
     11 N2         -1.6649   -6.8871    0.4270 N.2       1 <0>        -0.5764
     12 C8         -0.3506   -6.8664    0.2765 C.2       1 <0>         0.1712
     13 C9          0.3226   -5.6649    0.1654 C.2       1 <0>        -0.3078
     14 C10        -0.4923   -4.3921    0.2220 C.3       1 <0>         0.2708
     15 H1         -0.1157   -3.7890    1.0482 H         1 <0>         0.0881
     16 N3         -1.9631   -4.5371    0.3881 N.pl3     1 <0>        -0.5158
     17 C11        -0.2482   -3.6278   -1.0536 C.ar      1 <0>        -0.0932
     18 C12        -0.9673   -3.9377   -2.1929 C.ar      1 <0>        -0.0506
     19 C13        -0.7446   -3.2372   -3.3631 C.ar      1 <0>        -0.1458
     20 C14         0.1992   -2.2246   -3.3943 C.ar      1 <0>         0.0986
     21 C15         0.9189   -1.9151   -2.2526 C.ar      1 <0>        -0.1498
     22 C16         0.6908   -2.6135   -1.0821 C.ar      1 <0>        -0.0746
     23 F1          0.4181   -1.5394   -4.5379 F         1 <0>        -0.1440
     24 C17         1.7131   -5.6270    0.0062 C.2       1 <0>         0.5569
     25 O2          2.4325   -5.4451    0.9731 O.2       1 <0>        -0.5056
     26 O3          2.2577   -5.7921   -1.2196 O.3       1 <0>        -0.3449
     27 C18         3.6830   -5.7417   -1.3085 C.3       1 <0>         0.0602
     28 C19         4.1109   -5.9475   -2.7629 C.3       1 <0>        -0.1500
     29 C20         0.4174   -8.1621    0.2264 C.3       1 <0>         0.5217
     30 F2          1.7897   -7.8906    0.2156 F         1 <0>        -0.1667
     31 F3          0.1036   -8.9339    1.3502 F         1 <0>        -0.1638
     32 F4          0.0718   -8.8645   -0.9331 F         1 <0>        -0.1646
     33 H2         -4.1173    3.3882    0.0725 H         1 <0>         0.0625
     34 H3         -2.6685    2.7260    0.8667 H         1 <0>         0.0546
     35 H4         -2.8280    2.6454   -0.9043 H         1 <0>         0.0539
     36 H5         -4.5984    1.1882    1.1104 H         1 <0>         0.0524
     37 H6         -4.7578    1.1076   -0.6606 H         1 <0>         0.0474
     38 H7         -2.1213    0.3921   -0.0444 H         1 <0>         0.3847
     39 H8         -1.4432   -1.8479    0.3714 H         1 <0>         0.0859
     40 H9         -5.0603   -3.2350    0.7089 H         1 <0>         0.2397
     41 H10        -1.7033   -4.7278   -2.1684 H         1 <0>         0.1195
     42 H11        -1.3063   -3.4796   -4.2531 H         1 <0>         0.1326
     43 H12         1.6556   -1.1258   -2.2759 H         1 <0>         0.1330
     44 H13         1.2488   -2.3693   -0.1903 H         1 <0>         0.1278
     45 H14         4.0347   -4.7706   -0.9602 H         1 <0>         0.0638
     46 H15         4.1137   -6.5279   -0.6884 H         1 <0>         0.0647
     47 H16         5.1981   -5.9090   -2.8307 H         1 <0>         0.0753
     48 H17         3.7592   -6.9186   -3.1112 H         1 <0>         0.0651
     49 H18         3.6802   -5.1613   -3.3831 H         1 <0>         0.0652
@<TRIPOS>BOND
     1    1    2 1
     2    1   33 1
     3    1   34 1
     4    1   35 1
     5    2    3 1
     6    2   36 1
     7    2   37 1
     8    3    4 1
     9    3   38 1
    10    4    5 1
    11    4    6 2
    12    6    7 1
    13    6   39 1
    14    7   16 1
    15    7    8 2
    16    8    9 1
    17    8   40 1
    18    9   10 1
    19   10   16 1
    20   10   11 2
    21   11   12 1
    22   12   13 2
    23   12   29 1
    24   13   14 1
    25   13   24 1
    26   14   15 1
    27   14   16 1
    28   14   17 1
    29   17   22 ar
    30   17   18 ar
    31   18   19 ar
    32   18   41 1
    33   19   20 ar
    34   19   42 1
    35   20   21 ar
    36   20   23 1
    37   21   22 ar
    38   21   43 1
    39   22   44 1
    40   24   25 2
    41   24   26 1
    42   26   27 1
    43   27   28 1
    44   27   45 1
    45   27   46 1
    46   28   47 1
    47   28   48 1
    48   28   49 1
    49   29   30 1
    50   29   31 1
    51   29   32 1
@<TRIPOS>MOLECULE
ZINC40083935
   60    62     0     0     0
SMALL
USER_CHARGES

@<TRIPOS>ATOM
      1 C1        -12.8802  -10.8083   -1.8202 C.3       1 <0>        -0.1509
      2 C2        -11.4679  -10.2732   -2.0654 C.3       1 <0>        -0.1222
      3 C3        -10.6900  -10.2644   -0.7479 C.3       1 <0>        -0.1186
      4 C4         -9.2778   -9.7293   -0.9931 C.3       1 <0>         0.0595
      5 O1         -8.5513   -9.7210    0.2374 O.3       1 <0>        -0.3196
      6 C5         -7.2717   -9.2714    0.1943 C.ar      1 <0>         0.1253
      7 C6         -6.7283   -8.8405   -1.0112 C.ar      1 <0>        -0.2149
      8 C7         -5.4310   -8.3833   -1.0592 C.ar      1 <0>        -0.0488
      9 C8         -4.6590   -8.3524    0.1064 C.ar      1 <0>        -0.1150
     10 C9         -5.2091   -8.7864    1.3162 C.ar      1 <0>        -0.0018
     11 C10        -6.5094   -9.2373    1.3565 C.ar      1 <0>        -0.1540
     12 C11        -4.3817   -8.7558    2.5754 C.3       1 <0>        -0.1165
     13 C12        -3.2671   -7.8633    0.0595 C.2       1 <0>         0.4809
     14 O2         -3.0440   -6.6698   -0.0226 O.2       1 <0>        -0.5205
     15 C13        -2.1532   -8.8156    0.1118 C.2       1 <0>        -0.4832
     16 C14        -2.2439  -10.1656    0.0905 C.2       1 <0>         0.2783
     17 C15        -0.8859  -10.7447    0.1612 C.2       1 <0>         0.5038
     18 O3         -0.6339  -11.9333    0.1615 O.2       1 <0>        -0.5382
     19 N1          0.0299   -9.7612    0.2253 N.am      1 <0>        -0.6028
     20 C16        -0.6827   -8.4785    0.1933 C.3       1 <0>         0.2575
     21 H1         -0.4771   -7.9154    1.1036 H         1 <0>         0.0669
     22 C17        -0.2662   -7.6808   -1.0155 C.ar      1 <0>        -0.0327
     23 C18        -0.4653   -8.1954   -2.2837 C.ar      1 <0>        -0.0383
     24 C19        -0.0845   -7.4675   -3.3936 C.ar      1 <0>        -0.1067
     25 C20         0.4990   -6.2162   -3.2351 C.ar      1 <0>        -0.0864
     26 C21         0.6972   -5.7021   -1.9592 C.ar      1 <0>        -0.1336
     27 C22         0.3091   -6.4335   -0.8541 C.ar      1 <0>        -0.0802
     28 S1          0.9871   -5.2840   -4.6484 S.3       1 <0>        -0.1489
     29 C23         1.6804   -3.7597   -3.9508 C.3       1 <0>        -0.1369
     30 C24         1.4818   -9.9391    0.3062 C.3       1 <0>         0.1389
     31 C25         2.0510  -10.1330   -1.1006 C.3       1 <0>         0.0564
     32 O4          1.9124   -8.9193   -1.8421 O.3       1 <0>        -0.5459
     33 O5         -3.3949  -10.8730    0.0163 O.3       1 <0>        -0.6121
     34 H2        -13.4344  -10.8146   -2.7588 H         1 <0>         0.0548
     35 H3        -12.8210  -11.8230   -1.4264 H         1 <0>         0.0552
     36 H4        -13.3913  -10.1686   -1.1007 H         1 <0>         0.0546
     37 H5        -10.9568  -10.9129   -2.7848 H         1 <0>         0.0649
     38 H6        -11.5271   -9.2586   -2.4592 H         1 <0>         0.0640
     39 H7        -11.2012   -9.6246   -0.0285 H         1 <0>         0.0714
     40 H8        -10.6308  -11.2790   -0.3541 H         1 <0>         0.0725
     41 H9         -8.7667  -10.3690   -1.7125 H         1 <0>         0.0601
     42 H10        -9.3370   -8.7146   -1.3869 H         1 <0>         0.0584
     43 H11        -7.3251   -8.8651   -1.9110 H         1 <0>         0.1198
     44 H12        -5.0097   -8.0493   -1.9959 H         1 <0>         0.1173
     45 H13        -6.9364   -9.5690    2.2914 H         1 <0>         0.1233
     46 H14        -4.5766   -7.8295    3.1157 H         1 <0>         0.0644
     47 H15        -4.6459   -9.6059    3.2044 H         1 <0>         0.0647
     48 H16        -3.3242   -8.8099    2.3167 H         1 <0>         0.0790
     49 H17        -0.9188   -9.1678   -2.4061 H         1 <0>         0.1105
     50 H18        -0.2397   -7.8702   -4.3836 H         1 <0>         0.1131
     51 H19         1.1503   -4.7300   -1.8323 H         1 <0>         0.1095
     52 H20         0.4590   -6.0329    0.1376 H         1 <0>         0.1124
     53 H21         2.0146   -3.1094   -4.7591 H         1 <0>         0.1012
     54 H22         0.9167   -3.2481   -3.3650 H         1 <0>         0.0808
     55 H23         2.5263   -4.0058   -3.3090 H         1 <0>         0.0799
     56 H24         1.9312   -9.0565    0.7615 H         1 <0>         0.0827
     57 H25         1.7072  -10.8158    0.9134 H         1 <0>         0.0871
     58 H26         3.1060  -10.3986   -1.0323 H         1 <0>         0.0465
     59 H27         1.5073  -10.9314   -1.6057 H         1 <0>         0.0464
     60 H28         2.2532   -8.9693   -2.7457 H         1 <0>         0.3666
@<TRIPOS>BOND
     1    1    2 1
     2    1   34 1
     3    1   35 1
     4    1   36 1
     5    2    3 1
     6    2   37 1
     7    2   38 1
     8    3    4 1
     9    3   39 1
    10    3   40 1
    11    4    5 1
    12    4   41 1
    13    4   42 1
    14    5    6 1
    15    6   11 ar
    16    6    7 ar
    17    7    8 ar
    18    7   43 1
    19    8    9 ar
    20    8   44 1
    21    9   10 ar
    22    9   13 1
    23   10   11 ar
    24   10   12 1
    25   11   45 1
    26   12   46 1
    27   12   47 1
    28   12   48 1
    29   13   14 2
    30   13   15 1
    31   15   20 1
    32   15   16 2
    33   16   17 1
    34   16   33 1
    35   17   18 2
    36   17   19 am
    37   19   20 1
    38   19   30 1
    39   20   21 1
    40   20   22 1
    41   22   27 ar
    42   22   23 ar
    43   23   24 ar
    44   23   49 1
    45   24   25 ar
    46   24   50 1
    47   25   26 ar
    48   25   28 1
    49   26   27 ar
    50   26   51 1
    51   27   52 1
    52   28   29 1
    53   29   53 1
    54   29   54 1
    55   29   55 1
    56   30   31 1
    57   30   56 1
    58   30   57 1
    59   31   32 1
    60   31   58 1
    61   31   59 1
    62   32   60 1
@<TRIPOS>MOLECULE
ZINC44319449
   50    51     0     0     0
SMALL
USER_CHARGES

@<TRIPOS>ATOM
      1 C1         -0.6032    1.3883   -0.8657 C.3       1 <0>        -0.1861
      2 C2         -0.5431   -0.1405   -0.8506 C.3       1 <0>         0.1355
      3 C3         -0.0231   -0.6170    0.5072 C.3       1 <0>        -0.1831
      4 C4         -1.9438   -0.7083   -1.0881 C.3       1 <0>        -0.1367
      5 O1          0.3356   -0.5929   -1.8826 O.3       1 <0>        -0.3656
      6 C5          1.6156   -0.1799   -1.8202 C.2       1 <0>         0.6492
      7 O2          1.9766    0.5449   -0.9142 O.2       1 <0>        -0.5686
      8 N1          2.4964   -0.5703   -2.7626 N.am      1 <0>        -0.6755
      9 C6          3.8891   -0.1209   -2.6947 C.3       1 <0>         0.1017
     10 H1          4.1873   -0.0184   -1.6513 H         1 <0>         0.0921
     11 C7          4.7904   -1.1472   -3.3842 C.3       1 <0>        -0.0811
     12 C8          4.7449   -2.4472   -2.6233 C.ar      1 <0>        -0.0490
     13 C9          3.9121   -3.4662   -3.0476 C.ar      1 <0>        -0.0957
     14 C10         3.8675   -4.6592   -2.3530 C.ar      1 <0>        -0.1074
     15 C11         4.6608   -4.8361   -1.2267 C.ar      1 <0>         0.1753
     16 C12         5.4975   -3.8112   -0.8019 C.ar      1 <0>        -0.0346
     17 C13         5.5410   -2.6207   -1.5047 C.ar      1 <0>        -0.0272
     18 Cl1         6.5900   -1.3410   -0.9795 Cl        1 <0>        -0.0334
     19 Cl2         6.4907   -4.0267    0.6056 Cl        1 <0>        -0.0491
     20 N2          4.6172   -6.0421   -0.5219 N.pl3     1 <0>        -0.6713
     21 C14         3.6628   -6.2412    0.5804 C.3       1 <0>         0.1113
     22 C15         2.9179   -7.5597    0.3427 C.3       1 <0>         0.0478
     23 O3          3.8688   -8.6057    0.1295 O.3       1 <0>        -0.3823
     24 C16         4.6882   -8.4247   -1.0279 C.3       1 <0>         0.0475
     25 C17         5.5200   -7.1525   -0.8641 C.3       1 <0>         0.1119
     26 C18         4.0217    1.2104   -3.3882 C.2       1 <0>         0.4924
     27 O4          4.8670    2.0081   -3.0199 O.co2     1 <0>        -0.6849
     28 O5          3.2838    1.4898   -4.3177 O.co2     1 <0>        -0.6867
     29 H2          0.3947    1.7928   -0.6965 H         1 <0>         0.0914
     30 H3         -0.9737    1.7278   -1.8330 H         1 <0>         0.0585
     31 H4         -1.2735    1.7334   -0.0785 H         1 <0>         0.0627
     32 H5         -0.6934   -0.2719    1.2944 H         1 <0>         0.0635
     33 H6          0.0197   -1.7061    0.5180 H         1 <0>         0.0541
     34 H7          0.9748   -0.2124    0.6764 H         1 <0>         0.0898
     35 H8         -2.3143   -0.3688   -2.0554 H         1 <0>         0.0647
     36 H9         -1.9010   -1.7974   -1.0773 H         1 <0>         0.0623
     37 H10        -2.6141   -0.3632   -0.3009 H         1 <0>         0.0748
     38 H11         2.2082   -1.1489   -3.4859 H         1 <0>         0.3955
     39 H12         4.4412   -1.3106   -4.4037 H         1 <0>         0.0857
     40 H13         5.8145   -0.7747   -3.4062 H         1 <0>         0.0998
     41 H14         3.2952   -3.3289   -3.9234 H         1 <0>         0.1381
     42 H15         3.2160   -5.4539   -2.6853 H         1 <0>         0.1327
     43 H16         4.2005   -6.2888    1.5274 H         1 <0>         0.0606
     44 H17         2.9508   -5.4162    0.6030 H         1 <0>         0.0792
     45 H18         2.3071   -7.7950    1.2143 H         1 <0>         0.0985
     46 H19         2.2791   -7.4638   -0.5353 H         1 <0>         0.0527
     47 H20         5.3511   -9.2824   -1.1424 H         1 <0>         0.0983
     48 H21         4.0559   -8.3320   -1.9108 H         1 <0>         0.0519
     49 H22         6.0373   -6.9308   -1.7976 H         1 <0>         0.0787
     50 H23         6.2478   -7.2935   -0.0650 H         1 <0>         0.0598
@<TRIPOS>BOND
     1    1    2 1
     2    1   29 1
     3    1   30 1
     4    1   31 1
     5    2    3 1
     6    2    4 1
     7    2    5 1
     8    3   32 1
     9    3   33 1
    10    3   34 1
    11    4   35 1
    12    4   36 1
    13    4   37 1
    14    5    6 1
    15    6    7 2
    16    6    8 am
    17    8    9 1
    18    8   38 1
    19    9   10 1
    20    9   11 1
    21    9   26 1
    22   11   12 1
    23   11   39 1
    24   11   40 1
    25   12   17 ar
    26   12   13 ar
    27   13   14 ar
    28   13   41 1
    29   14   15 ar
    30   14   42 1
    31   15   16 ar
    32   15   20 1
    33   16   17 ar
    34   16   19 1
    35   17   18 1
    36   20   25 1
    37   20   21 1
    38   21   22 1
    39   21   43 1
    40   21   44 1
    41   22   23 1
    42   22   45 1
    43   22   46 1
    44   23   24 1
    45   24   25 1
    46   24   47 1
    47   24   48 1
    48   25   49 1
    49   25   50 1
    50   26   27 2
    51   26   28 1
@<TRIPOS>MOLECULE
ZINC02998930
   48    50     0     0     0
SMALL
USER_CHARGES
N-[(4-chlorophenyl)-(8-hydroxy-5-nitro-7-quinolyl)-methyl]pentanamide
@<TRIPOS>ATOM
      1 C1          7.0751   -0.1440    6.1261 C.3       1 <0>        -0.1523
      2 C2          6.9971    0.6376    4.8131 C.3       1 <0>        -0.1250
      3 C3          5.7501    0.2084    4.0374 C.3       1 <0>        -0.1042
      4 C4          5.6721    0.9899    2.7244 C.3       1 <0>        -0.1420
      5 C5          4.4438    0.5672    1.9604 C.2       1 <0>         0.5116
      6 O1          3.7037   -0.2762    2.4207 O.2       1 <0>        -0.5351
      7 N1          4.1678    1.1263    0.7655 N.am      1 <0>        -0.7261
      8 C6          2.9738    0.7154    0.0228 C.3       1 <0>         0.2616
      9 H1          2.7913   -0.3466    0.1871 H         1 <0>         0.1123
     10 C7          1.7860    1.5093    0.5022 C.ar      1 <0>        -0.0639
     11 C8          0.5589    0.8916    0.6566 C.ar      1 <0>        -0.0767
     12 C9         -0.5322    1.6205    1.0908 C.ar      1 <0>        -0.1129
     13 C10        -0.3936    2.9660    1.3814 C.ar      1 <0>        -0.0400
     14 C11         0.8348    3.5835    1.2271 C.ar      1 <0>        -0.1158
     15 C12         1.9240    2.8548    0.7878 C.ar      1 <0>        -0.0970
     16 Cl1        -1.7622    3.8808    1.9326 Cl        1 <0>        -0.0860
     17 C13         3.1857    0.9670   -1.4479 C.ar      1 <0>        -0.2787
     18 C14         4.0105    2.0133   -1.8526 C.ar      1 <0>         0.0459
     19 C15         4.2229    2.2666   -3.1735 C.ar      1 <0>        -0.1837
     20 C16         3.6032    1.4636   -4.1451 C.ar      1 <0>        -0.0023
     21 C17         3.7991    1.6945   -5.5199 C.ar      1 <0>        -0.1127
     22 C18         3.1648    0.8733   -6.4079 C.ar      1 <0>        -0.1426
     23 C19         2.3513   -0.1577   -5.9424 C.ar      1 <0>         0.0611
     24 N2          2.1716   -0.3692   -4.6613 N.ar      1 <0>        -0.4106
     25 C20         2.7630    0.3976   -3.7409 C.ar      1 <0>         0.0556
     26 C21         2.5704    0.1618   -2.3634 C.ar      1 <0>         0.3519
     27 N3          5.1028    3.3840   -3.5839 N.pl3     1 <0>         0.0643
     28 O2          5.8439    3.2554   -4.5419 O.2       1 <0>        -0.2063
     29 O3          5.0857    4.4321   -2.9636 O.3       1 <0>        -0.2067
     30 H2          6.1869    0.0605    6.7240 H         1 <0>         0.0540
     31 H3          7.1304   -1.2112    5.9109 H         1 <0>         0.0541
     32 H4          7.9634    0.1617    6.6787 H         1 <0>         0.0518
     33 H5          7.8852    0.4330    4.2152 H         1 <0>         0.0609
     34 H6          6.9417    1.7047    5.0282 H         1 <0>         0.0608
     35 H7          4.8619    0.4129    4.6353 H         1 <0>         0.0692
     36 H8          5.8054   -0.8588    3.8223 H         1 <0>         0.0695
     37 H9          6.5602    0.7854    2.1265 H         1 <0>         0.0914
     38 H10         5.6167    2.0571    2.9395 H         1 <0>         0.0914
     39 H11         4.7598    1.8009    0.3974 H         1 <0>         0.3946
     40 H12         0.4518   -0.1597    0.4336 H         1 <0>         0.1388
     41 H13        -1.4919    1.1389    1.2068 H         1 <0>         0.1296
     42 H14         0.9426    4.6349    1.4496 H         1 <0>         0.1282
     43 H15         2.8830    3.3367    0.6674 H         1 <0>         0.1238
     44 H16         4.4889    2.6326   -1.1082 H         1 <0>         0.1181
     45 H17         4.4331    2.4988   -5.8629 H         1 <0>         0.1430
     46 H18         3.2934    1.0231   -7.4698 H         1 <0>         0.1309
     47 H19         1.8561   -0.7996   -6.6559 H         1 <0>         0.1515
     48 O4          1.7733   -0.8575   -1.9499 O.3       1 <0>        -0.6055
@<TRIPOS>BOND
     1    1    2 1
     2    1   30 1
     3    1   31 1
     4    1   32 1
     5    2    3 1
     6    2   33 1
     7    2   34 1
     8    3    4 1
     9    3   35 1
    10    3   36 1
    11    4    5 1
    12    4   37 1
    13    4   38 1
    14    5    6 2
    15    5    7 am
    16    7    8 1
    17    7   39 1
    18    8    9 1
    19    8   10 1
    20    8   17 1
    21   10   15 ar
    22   10   11 ar
    23   11   12 ar
    24   11   40 1
    25   12   13 ar
    26   12   41 1
    27   13   14 ar
    28   13   16 1
    29   14   15 ar
    30   14   42 1
    31   15   43 1
    32   17   26 ar
    33   17   18 ar
    34   18   19 ar
    35   18   44 1
    36   19   20 ar
    37   19   27 1
    38   20   25 ar
    39   20   21 ar
    40   21   22 ar
    41   21   45 1
    42   22   23 ar
    43   22   46 1
    44   23   24 ar
    45   23   47 1
    46   24   25 ar
    47   25   26 ar
    48   26   48 1
    49   27   28 2
    50   27   29 1
@<TRIPOS>MOLECULE
ZINC16742264
   47    50     0     0     0
SMALL
USER_CHARGES
(E)-3-[5-(4-chlorophenyl)-2-furyl]-N-phenethyl-2-(1H-tetrazol-5-yl)prop-2-enamide
@<TRIPOS>ATOM
      1 C1         10.2732    2.2424    0.9265 C.ar      1 <0>        -0.1259
      2 C2          9.4471    1.9591    1.9980 C.ar      1 <0>        -0.1193
      3 C3          8.1077    1.6907    1.7862 C.ar      1 <0>        -0.1136
      4 C4          7.5945    1.7053    0.5027 C.ar      1 <0>        -0.0746
      5 C5          8.4217    1.9831   -0.5694 C.ar      1 <0>        -0.1139
      6 C6          9.7600    2.2566   -0.3570 C.ar      1 <0>        -0.1196
      7 C7          6.1344    1.4123    0.2717 C.3       1 <0>        -0.0963
      8 C8          5.3369    2.7167    0.3307 C.3       1 <0>         0.1295
      9 N1          3.9175    2.4319    0.1061 N.am      1 <0>        -0.7179
     10 C9          3.0192    3.4365    0.1139 C.2       1 <0>         0.5716
     11 O1          3.3963    4.5894    0.2140 O.2       1 <0>        -0.5518
     12 C10         1.5866    3.1405    0.0015 C.2       1 <0>        -0.0315
     13 C11         0.6726    4.1738   -0.0980 C.2       1 <0>        -0.0139
     14 C12        -0.7069    3.8963   -0.0883 C.2       1 <0>         0.0285
     15 C13        -1.7249    4.8364   -0.0795 C.2       1 <0>        -0.1818
     16 C14        -2.9274    4.1285   -0.0723 C.2       1 <0>        -0.1942
     17 C15        -2.6067    2.7885   -0.0770 C.2       1 <0>         0.0288
     18 O2         -1.2675    2.6682   -0.0920 O.3       1 <0>        -0.1145
     19 C16        -3.5715    1.6722   -0.0730 C.ar      1 <0>        -0.0110
     20 C17        -4.9419    1.9289   -0.1661 C.ar      1 <0>        -0.0898
     21 C18        -5.8380    0.8809   -0.1667 C.ar      1 <0>        -0.1139
     22 C19        -5.3829   -0.4235   -0.0651 C.ar      1 <0>        -0.0321
     23 C20        -4.0260   -0.6844    0.0328 C.ar      1 <0>        -0.1020
     24 C21        -3.1191    0.3541    0.0297 C.ar      1 <0>        -0.0751
     25 Cl1        -6.5181   -1.7368   -0.0599 Cl        1 <0>        -0.0759
     26 C22         1.1215    1.7420   -0.0053 C.2       1 <0>         0.1206
     27 N2          0.4513   -0.2731    0.5658 N.2       1 <0>        -0.2087
     28 N3          0.4862   -0.1716   -0.7184 N.2       1 <0>        -0.1587
     29 N4          0.8760    1.0005   -1.0685 N.2       1 <0>        -0.3872
     30 H1         11.3195    2.4524    1.0921 H         1 <0>         0.1193
     31 H2          9.8480    1.9477    3.0008 H         1 <0>         0.1210
     32 H3          7.4623    1.4693    2.6233 H         1 <0>         0.1233
     33 H4          8.0217    1.9901   -1.5725 H         1 <0>         0.1230
     34 H5         10.4055    2.4776   -1.1942 H         1 <0>         0.1209
     35 H6          5.7741    0.7310    1.0424 H         1 <0>         0.0815
     36 H7          6.0067    0.9524   -0.7083 H         1 <0>         0.0810
     37 H8          5.6972    3.3980   -0.4401 H         1 <0>         0.0691
     38 H9          5.4646    3.1766    1.3107 H         1 <0>         0.0678
     39 H10         3.6243    1.5202   -0.0482 H         1 <0>         0.4085
     40 H11         1.0177    5.1937   -0.1830 H         1 <0>         0.1643
     41 H12        -1.6097    5.9103   -0.0778 H         1 <0>         0.1557
     42 H13        -3.9213    4.5510   -0.0642 H         1 <0>         0.1508
     43 H14        -5.2983    2.9456   -0.2413 H         1 <0>         0.1358
     44 H15        -6.8972    1.0777   -0.2420 H         1 <0>         0.1362
     45 H16        -3.6778   -1.7037    0.1121 H         1 <0>         0.1384
     46 H17        -2.0615    0.1493    0.1069 H         1 <0>         0.1502
     47 N5          0.8603    0.9590    1.0588 N.2       1 <0>        -0.4026
@<TRIPOS>BOND
     1    1    6 ar
     2    1    2 ar
     3    1   30 1
     4    2    3 ar
     5    2   31 1
     6    3    4 ar
     7    3   32 1
     8    4    5 ar
     9    4    7 1
    10    5    6 ar
    11    5   33 1
    12    6   34 1
    13    7    8 1
    14    7   35 1
    15    7   36 1
    16    8    9 1
    17    8   37 1
    18    8   38 1
    19    9   10 am
    20    9   39 1
    21   10   11 2
    22   10   12 1
    23   12   13 2
    24   12   26 1
    25   13   14 1
    26   13   40 1
    27   14   18 1
    28   14   15 2
    29   15   16 1
    30   15   41 1
    31   16   17 2
    32   16   42 1
    33   17   18 1
    34   17   19 1
    35   19   24 ar
    36   19   20 ar
    37   20   21 ar
    38   20   43 1
    39   21   22 ar
    40   21   44 1
    41   22   23 ar
    42   22   25 1
    43   23   24 ar
    44   23   45 1
    45   24   46 1
    46   26   29 2
    47   26   47 1
    48   27   28 2
    49   27   47 1
    50   28   29 1
@<TRIPOS>MOLECULE
ZINC35696591
   52    54     0     0     0
SMALL
USER_CHARGES

@<TRIPOS>ATOM
      1 C1          0.5284    0.8574   -0.1867 C.3       1 <0>        -0.1254
      2 C2          0.1992   -0.6274   -0.0197 C.3       1 <0>        -0.0813
      3 C3         -1.2958   -0.8067    0.0415 C.2       1 <0>         0.3076
      4 C4         -2.0229   -0.9114   -1.1288 C.2       1 <0>        -0.3916
      5 C5         -3.5203   -1.0908   -1.0150 C.3       1 <0>         0.2614
      6 H1         -3.7869   -2.0171   -1.5238 H         1 <0>         0.0769
      7 N1         -4.0936   -1.1403    0.3564 N.pl3     1 <0>        -0.5133
      8 C6         -5.4226   -1.2965    0.6964 C.2       1 <0>         0.2303
      9 C7         -5.7354   -1.3158    2.0108 C.2       1 <0>        -0.3037
     10 S1         -4.1378   -1.1115    2.7729 S.3       1 <0>         0.1421
     11 C8         -3.2004   -1.0176    1.3838 C.2       1 <0>         0.3193
     12 N2         -1.9026   -0.8683    1.2156 N.2       1 <0>        -0.5945
     13 C9         -6.4606   -1.4364   -0.3350 C.2       1 <0>        -0.4739
     14 C10        -7.7182   -1.7676    0.0157 C.2       1 <0>         0.5034
     15 O1         -8.0592   -1.8416    1.3253 O.3       1 <0>        -0.7027
     16 N3         -8.6625   -2.0325   -0.9617 N.pl3     1 <0>        -0.7505
     17 C11       -10.0565   -2.2803   -0.5854 C.3       1 <0>         0.1506
     18 C12       -10.7974   -0.9470   -0.4661 C.3       1 <0>        -0.1582
     19 C13       -10.7281   -3.1430   -1.6558 C.3       1 <0>        -0.1572
     20 C14        -4.1810    0.0454   -1.7524 C.ar      1 <0>        -0.0813
     21 C15        -4.1474    1.3230   -1.2255 C.ar      1 <0>        -0.0648
     22 C16        -4.7525    2.3657   -1.9011 C.ar      1 <0>        -0.1546
     23 C17        -5.3926    2.1304   -3.1061 C.ar      1 <0>         0.0928
     24 C18        -5.4256    0.8503   -3.6328 C.ar      1 <0>        -0.1556
     25 C19        -4.8152   -0.1899   -2.9580 C.ar      1 <0>        -0.0519
     26 F1         -5.9849    3.1489   -3.7672 F         1 <0>        -0.1467
     27 C20        -1.3943   -0.8529   -2.3785 C.2       1 <0>         0.5344
     28 O2         -0.2048   -0.5973   -2.4510 O.2       1 <0>        -0.5429
     29 O3         -2.1065   -1.0800   -3.5044 O.3       1 <0>        -0.3589
     30 C21        -1.4009   -1.0041   -4.7447 C.3       1 <0>         0.0416
     31 H2          1.6097    0.9871   -0.2310 H         1 <0>         0.0554
     32 H3          0.0800    1.2276   -1.1086 H         1 <0>         0.0594
     33 H4          0.1299    1.4154    0.6607 H         1 <0>         0.0466
     34 H5          0.5977   -1.1854   -0.8671 H         1 <0>         0.1085
     35 H6          0.6476   -0.9975    0.9022 H         1 <0>         0.0688
     36 H7         -6.7028   -1.4259    2.4782 H         1 <0>         0.2365
     37 H8         -6.2149   -1.2737   -1.3740 H         1 <0>         0.0916
     38 H9         -8.4011   -2.0539   -1.8955 H         1 <0>         0.3831
     39 H10       -10.0874   -2.8000    0.3722 H         1 <0>         0.0803
     40 H11       -10.3189   -0.3324    0.2964 H         1 <0>         0.0598
     41 H12       -10.7664   -0.4272   -1.4238 H         1 <0>         0.0447
     42 H13       -11.8345   -1.1314   -0.1862 H         1 <0>         0.0490
     43 H14       -10.2002   -4.0929   -1.7407 H         1 <0>         0.0551
     44 H15       -11.7652   -3.3274   -1.3758 H         1 <0>         0.0600
     45 H16       -10.6971   -2.6232   -2.6134 H         1 <0>         0.0514
     46 H17        -3.6483    1.5063   -0.2854 H         1 <0>         0.1159
     47 H18        -4.7264    3.3638   -1.4891 H         1 <0>         0.1287
     48 H19        -5.9249    0.6655   -4.5725 H         1 <0>         0.1305
     49 H20        -4.8370   -1.1876   -3.3709 H         1 <0>         0.1305
     50 H21        -0.9782   -0.0062   -4.8618 H         1 <0>         0.0515
     51 H22        -0.5985   -1.7417   -4.7520 H         1 <0>         0.0518
     52 H23        -2.0879   -1.2064   -5.5665 H         1 <0>         0.0895
@<TRIPOS>BOND
     1    1    2 1
     2    1   31 1
     3    1   32 1
     4    1   33 1
     5    2    3 1
     6    2   34 1
     7    2   35 1
     8    3   12 1
     9    3    4 2
    10    4    5 1
    11    4   27 1
    12    5    6 1
    13    5    7 1
    14    5   20 1
    15    7   11 1
    16    7    8 1
    17    8    9 2
    18    8   13 1
    19    9   10 1
    20    9   36 1
    21   10   11 1
    22   11   12 2
    23   13   14 2
    24   13   37 1
    25   14   15 1
    26   14   16 1
    27   16   17 1
    28   16   38 1
    29   17   18 1
    30   17   19 1
    31   17   39 1
    32   18   40 1
    33   18   41 1
    34   18   42 1
    35   19   43 1
    36   19   44 1
    37   19   45 1
    38   20   25 ar
    39   20   21 ar
    40   21   22 ar
    41   21   46 1
    42   22   23 ar
    43   22   47 1
    44   23   24 ar
    45   23   26 1
    46   24   25 ar
    47   24   48 1
    48   25   49 1
    49   27   28 2
    50   27   29 1
    51   29   30 1
    52   30   50 1
    53   30   51 1
    54   30   52 1
@<TRIPOS>MOLECULE
ZINC40082295
   53    55     0     0     0
SMALL
USER_CHARGES

@<TRIPOS>ATOM
      1 C1         -5.4837  -12.8612    2.1077 C.3       1 <0>        -0.1492
      2 C2         -5.7562  -12.1342    0.7893 C.3       1 <0>        -0.1230
      3 C3         -5.7635  -10.6236    1.0320 C.3       1 <0>         0.0592
      4 O1         -6.0180   -9.9445   -0.1994 O.3       1 <0>        -0.3199
      5 C4         -6.0577   -8.5888   -0.1585 C.ar      1 <0>         0.1255
      6 C5         -5.8493   -7.9250    1.0457 C.ar      1 <0>        -0.2151
      7 C6         -5.8883   -6.5499    1.0915 C.ar      1 <0>        -0.0488
      8 C7         -6.1379   -5.8203   -0.0751 C.ar      1 <0>        -0.1155
      9 C8         -6.3469   -6.4915   -1.2836 C.ar      1 <0>        -0.0014
     10 C9         -6.3009   -7.8670   -1.3216 C.ar      1 <0>        -0.1541
     11 C10        -6.6168   -5.7104   -2.5437 C.3       1 <0>        -0.1166
     12 C11        -6.1811   -4.3455   -0.0306 C.2       1 <0>         0.4809
     13 O2         -5.1472   -3.7086    0.0493 O.2       1 <0>        -0.5201
     14 C12        -7.4699   -3.6478   -0.0827 C.2       1 <0>        -0.4844
     15 C13        -8.6973   -4.2171   -0.0592 C.2       1 <0>         0.2788
     16 C14        -9.7254   -3.1577   -0.1306 C.2       1 <0>         0.5039
     17 O3        -10.9252   -3.3492   -0.1292 O.2       1 <0>        -0.5372
     18 N1         -9.1363   -1.9499   -0.1973 N.am      1 <0>        -0.6032
     19 C15        -7.6833   -2.1544   -0.1665 C.3       1 <0>         0.2569
     20 H1         -7.2325   -1.7619   -1.0780 H         1 <0>         0.0690
     21 C16        -7.0870   -1.4773    1.0406 C.ar      1 <0>        -0.0291
     22 C17        -7.4933   -1.8445    2.3099 C.ar      1 <0>        -0.0441
     23 C18        -6.9467   -1.2238    3.4173 C.ar      1 <0>        -0.1213
     24 C19        -5.9929   -0.2348    3.2553 C.ar      1 <0>        -0.0374
     25 C20        -5.5867    0.1323    1.9847 C.ar      1 <0>        -0.1152
     26 C21        -6.1299   -0.4931    0.8782 C.ar      1 <0>        -0.0860
     27 Cl1        -5.3064    0.5456    4.6457 Cl        1 <0>        -0.0987
     28 C22        -9.8237   -0.6588   -0.2796 C.3       1 <0>         0.1383
     29 C23       -10.2076   -0.1949    1.1269 C.3       1 <0>         0.0565
     30 O4         -9.0243    0.1127    1.8666 O.3       1 <0>        -0.5479
     31 O5         -8.9442   -5.5452    0.0176 O.3       1 <0>        -0.6109
     32 H2         -5.4785  -13.9374    1.9348 H         1 <0>         0.0615
     33 H3         -4.5150  -12.5515    2.4999 H         1 <0>         0.0565
     34 H4         -6.2634  -12.6126    2.8276 H         1 <0>         0.0574
     35 H5         -4.9764  -12.3828    0.0694 H         1 <0>         0.0711
     36 H6         -6.7249  -12.4439    0.3971 H         1 <0>         0.0722
     37 H7         -6.5433  -10.3750    1.7519 H         1 <0>         0.0601
     38 H8         -4.7948  -10.3139    1.4242 H         1 <0>         0.0585
     39 H9         -5.6570   -8.4893    1.9462 H         1 <0>         0.1198
     40 H10        -5.7267   -6.0352    2.0271 H         1 <0>         0.1173
     41 H11        -6.4582   -8.3862   -2.2555 H         1 <0>         0.1235
     42 H12        -5.6828   -5.5606   -3.0854 H         1 <0>         0.0647
     43 H13        -7.3160   -6.2632   -3.1711 H         1 <0>         0.0648
     44 H14        -7.0467   -4.7424   -2.2862 H         1 <0>         0.0790
     45 H15        -8.2381   -2.6163    2.4362 H         1 <0>         0.1142
     46 H16        -7.2644   -1.5105    4.4089 H         1 <0>         0.1183
     47 H17        -4.8424    0.9044    1.8576 H         1 <0>         0.1194
     48 H18        -5.8094   -0.2100   -0.1135 H         1 <0>         0.1190
     49 H19        -9.1618    0.0767   -0.7368 H         1 <0>         0.0836
     50 H20       -10.7235   -0.7642   -0.8857 H         1 <0>         0.0877
     51 H21       -10.8343    0.6943    1.0578 H         1 <0>         0.0475
     52 H22       -10.7571   -0.9881    1.6338 H         1 <0>         0.0467
     53 H23        -9.1923    0.4142    2.7699 H         1 <0>         0.3669
@<TRIPOS>BOND
     1    1    2 1
     2    1   32 1
     3    1   33 1
     4    1   34 1
     5    2    3 1
     6    2   35 1
     7    2   36 1
     8    3    4 1
     9    3   37 1
    10    3   38 1
    11    4    5 1
    12    5   10 ar
    13    5    6 ar
    14    6    7 ar
    15    6   39 1
    16    7    8 ar
    17    7   40 1
    18    8    9 ar
    19    8   12 1
    20    9   10 ar
    21    9   11 1
    22   10   41 1
    23   11   42 1
    24   11   43 1
    25   11   44 1
    26   12   13 2
    27   12   14 1
    28   14   19 1
    29   14   15 2
    30   15   16 1
    31   15   31 1
    32   16   17 2
    33   16   18 am
    34   18   19 1
    35   18   28 1
    36   19   20 1
    37   19   21 1
    38   21   26 ar
    39   21   22 ar
    40   22   23 ar
    41   22   45 1
    42   23   24 ar
    43   23   46 1
    44   24   25 ar
    45   24   27 1
    46   25   26 ar
    47   25   47 1
    48   26   48 1
    49   28   29 1
    50   28   49 1
    51   28   50 1
    52   29   30 1
    53   29   51 1
    54   29   52 1
    55   30   53 1
@<TRIPOS>MOLECULE
ZINC13205302
   49    52     0     0     0
SMALL
USER_CHARGES

@<TRIPOS>ATOM
      1 C1         -0.4206    1.4697    0.0181 C.3       1 <0>        -0.1123
      2 C2         -0.3175   -0.0337    0.0079 C.ar      1 <0>        -0.0828
      3 C3         -0.2931   -0.7143   -1.1965 C.ar      1 <0>        -0.1257
      4 C4         -0.1993   -2.0906   -1.2128 C.ar      1 <0>        -0.0768
      5 C5         -0.1285   -2.7964   -0.0108 C.ar      1 <0>        -0.0111
      6 C6         -0.1531   -2.1037    1.2007 C.ar      1 <0>        -0.0977
      7 C7         -0.2420   -0.7270    1.2029 C.ar      1 <0>        -0.1169
      8 C8         -0.0283   -4.2714   -0.0207 C.2       1 <0>         0.2229
      9 N1         -0.3500   -5.0685   -1.0128 N.2       1 <0>        -0.2811
     10 N2         -0.1362   -6.2912   -0.6801 N.2       1 <0>        -0.3054
     11 C9          0.3353   -6.3496    0.5455 C.2       1 <0>         0.1588
     12 N3          0.4254   -5.0671    1.0059 N.pl3     1 <0>        -0.4069
     13 C10         0.9031   -4.6299    2.3200 C.3       1 <0>         0.0149
     14 C11        -0.2462   -4.6204    3.2947 C.2       1 <0>         0.4891
     15 O1         -1.3610   -4.9485    2.9258 O.co2     1 <0>        -0.6629
     16 O2         -0.0613   -4.2847    4.4521 O.co2     1 <0>        -0.6781
     17 S1          0.7750   -7.8101    1.4277 S.3       1 <0>         0.0508
     18 C12         0.4245   -9.1516    0.2580 C.3       1 <0>        -0.1666
     19 C13         0.7613  -10.4749    0.8957 C.2       1 <0>         0.4625
     20 O3          1.1060  -10.5179    2.0590 O.2       1 <0>        -0.4247
     21 C14         0.6756  -11.6691    0.1374 C.2       1 <0>        -0.2578
     22 C15        -0.3973  -12.5323    0.0706 C.2       1 <0>         0.1453
     23 N4         -0.1039  -13.5555   -0.7543 N.pl3     1 <0>        -0.5737
     24 H1         -0.7052  -14.2887   -0.9588 H         1 <0>         0.4185
     25 C16         1.1694  -13.4181   -1.2690 C.ar      1 <0>         0.0878
     26 C17         1.7149  -12.2356   -0.7448 C.ar      1 <0>        -0.0616
     27 C18         3.0004  -11.8404   -1.1016 C.ar      1 <0>        -0.0781
     28 C19         3.7345  -12.6141   -1.9749 C.ar      1 <0>        -0.1337
     29 C20         3.1965  -13.7809   -2.4967 C.ar      1 <0>        -0.1031
     30 C21         1.9274  -14.1876   -2.1454 C.ar      1 <0>        -0.1226
     31 C22        -1.6996  -12.3576    0.8085 C.3       1 <0>        -0.1086
     32 H2          0.5795    1.9026   -0.0034 H         1 <0>         0.0690
     33 H3         -0.9791    1.8015   -0.8572 H         1 <0>         0.0650
     34 H4         -0.9369    1.7924    0.9222 H         1 <0>         0.0662
     35 H5         -0.3480   -0.1669   -2.1259 H         1 <0>         0.1253
     36 H6         -0.1811   -2.6207   -2.1536 H         1 <0>         0.1331
     37 H7         -0.0990   -2.6440    2.1343 H         1 <0>         0.1386
     38 H8         -0.2567   -0.1895    2.1395 H         1 <0>         0.1268
     39 H9          1.6734   -5.3155    2.6732 H         1 <0>         0.0975
     40 H10         1.3196   -3.6258    2.2395 H         1 <0>         0.1018
     41 H11        -0.6325   -9.1350   -0.0078 H         1 <0>         0.1281
     42 H12         1.0272   -9.0173   -0.6402 H         1 <0>         0.1248
     43 H13         3.4209  -10.9318   -0.6965 H         1 <0>         0.1252
     44 H14         4.7324  -12.3101   -2.2542 H         1 <0>         0.1262
     45 H15         3.7800  -14.3799   -3.1802 H         1 <0>         0.1268
     46 H16         1.5174  -15.0971   -2.5591 H         1 <0>         0.1214
     47 H17        -2.4207  -11.8599    0.1602 H         1 <0>         0.0902
     48 H18        -2.0861  -13.3344    1.0995 H         1 <0>         0.0792
     49 H19        -1.5338  -11.7523    1.6997 H         1 <0>         0.0924
@<TRIPOS>BOND
     1    1    2 1
     2    1   32 1
     3    1   33 1
     4    1   34 1
     5    2    7 ar
     6    2    3 ar
     7    3    4 ar
     8    3   35 1
     9    4    5 ar
    10    4   36 1
    11    5    6 ar
    12    5    8 1
    13    6    7 ar
    14    6   37 1
    15    7   38 1
    16    8   12 1
    17    8    9 2
    18    9   10 1
    19   10   11 2
    20   11   12 1
    21   11   17 1
    22   12   13 1
    23   13   14 1
    24   13   39 1
    25   13   40 1
    26   14   15 2
    27   14   16 1
    28   17   18 1
    29   18   19 1
    30   18   41 1
    31   18   42 1
    32   19   20 2
    33   19   21 1
    34   21   26 1
    35   21   22 2
    36   22   23 1
    37   22   31 1
    38   23   24 1
    39   23   25 1
    40   25   30 ar
    41   25   26 ar
    42   26   27 ar
    43   27   28 ar
    44   27   43 1
    45   28   29 ar
    46   28   44 1
    47   29   30 ar
    48   29   45 1
    49   30   46 1
    50   31   47 1
    51   31   48 1
    52   31   49 1
@<TRIPOS>MOLECULE
ZINC06393565
   59    61     0     0     0
SMALL
USER_CHARGES
6-[3-(4-chlorobenzoyl)-2-(4-dimethylaminophenyl)-4,5-dioxo-pyrrolidin-1-yl]hexanoic acid
@<TRIPOS>ATOM
      1 C1         -2.7305    0.5802    0.3932 C.3       1 <0>         0.0932
      2 N1         -1.5483    1.4364    0.2684 N.pl3     1 <0>        -0.6350
      3 C2         -1.7018    2.8917    0.2002 C.3       1 <0>         0.0918
      4 C3         -0.2749    0.8651    0.2143 C.ar      1 <0>         0.2260
      5 C4          0.8467    1.6752    0.0902 C.ar      1 <0>        -0.1904
      6 C5          2.1040    1.1067    0.0313 C.ar      1 <0>        -0.0360
      7 C6          2.2471   -0.2672    0.0958 C.ar      1 <0>        -0.1607
      8 C7          1.1326   -1.0765    0.2194 C.ar      1 <0>        -0.0571
      9 C8         -0.1276   -0.5147    0.2788 C.ar      1 <0>        -0.1977
     10 C9          3.6206   -0.8838    0.0318 C.3       1 <0>         0.2789
     11 H1          3.5399   -1.9552   -0.1521 H         1 <0>         0.0991
     12 C10         4.3722   -0.6316    1.3487 C.2       1 <0>        -0.4284
     13 H2          6.2658    0.3172    2.6061 H         1 <0>         0.4245
     14 C11         5.5924    0.1656    0.9365 C.2       1 <0>         0.1918
     15 O1          6.4645    0.5803    1.6620 O.3       1 <0>        -0.3408
     16 C12         5.5039    0.3369   -0.5410 C.2       1 <0>         0.5365
     17 O2          6.3212    0.9308   -1.2135 O.2       1 <0>        -0.4946
     18 N2          4.4041   -0.2515   -1.0299 N.am      1 <0>        -0.5775
     19 C13         4.0326   -0.2609   -2.4470 C.3       1 <0>         0.1331
     20 C14         3.1653    0.9613   -2.7550 C.3       1 <0>        -0.1441
     21 C15         2.7773    0.9515   -4.2349 C.3       1 <0>        -0.1149
     22 C16         1.9100    2.1737   -4.5429 C.3       1 <0>        -0.0941
     23 C17         1.5220    2.1638   -6.0229 C.3       1 <0>        -0.1577
     24 C18         0.6678    3.3677   -6.3263 C.2       1 <0>         0.4576
     25 O3          0.3970    4.1529   -5.4488 O.co2     1 <0>        -0.6424
     26 C19         4.3701   -0.8594    2.8384 C.2       1 <0>         0.4797
     27 O4          5.0121   -0.1301    3.5642 O.2       1 <0>        -0.4906
     28 C20         3.5895   -1.9663    3.4121 C.ar      1 <0>        -0.1501
     29 C21         2.8432   -2.8059    2.5785 C.ar      1 <0>        -0.0478
     30 C22         2.1180   -3.8439    3.1225 C.ar      1 <0>        -0.1245
     31 C23         2.1182   -4.0501    4.4928 C.ar      1 <0>        -0.0047
     32 C24         2.8513   -3.2194    5.3251 C.ar      1 <0>        -0.1260
     33 C25         3.5854   -2.1806    4.7946 C.ar      1 <0>        -0.0491
     34 Cl1         1.1960   -5.3557    5.1700 Cl        1 <0>        -0.0632
     35 H3         -2.9555    0.4230    1.4481 H         1 <0>         0.0459
     36 H4         -3.5801    1.0608   -0.0918 H         1 <0>         0.0669
     37 H5         -2.5355   -0.3803   -0.0837 H         1 <0>         0.0685
     38 H6         -1.2890    3.2569   -0.7402 H         1 <0>         0.0621
     39 H7         -2.7596    3.1485    0.2568 H         1 <0>         0.0726
     40 H8         -1.1709    3.3524    1.0333 H         1 <0>         0.0531
     41 H9          0.7357    2.7482    0.0394 H         1 <0>         0.1227
     42 H10         2.9765    1.7360   -0.0648 H         1 <0>         0.1131
     43 H11         1.2478   -2.1492    0.2691 H         1 <0>         0.1191
     44 H12        -0.9975   -1.1473    0.3757 H         1 <0>         0.1222
     45 H13         4.9340   -0.2303   -3.0591 H         1 <0>         0.0891
     46 H14         3.4727   -1.1692   -2.6698 H         1 <0>         0.0892
     47 H15         2.2639    0.9308   -2.1429 H         1 <0>         0.0809
     48 H16         3.7252    1.8696   -2.5322 H         1 <0>         0.0650
     49 H17         3.6787    0.9820   -4.8471 H         1 <0>         0.0586
     50 H18         2.2175    0.0432   -4.4577 H         1 <0>         0.0587
     51 H19         1.0086    2.1431   -3.9308 H         1 <0>         0.0582
     52 H20         2.4699    3.0820   -4.3201 H         1 <0>         0.0583
     53 H21         2.4234    2.1944   -6.6350 H         1 <0>         0.0615
     54 H22         0.9622    1.2555   -6.2457 H         1 <0>         0.0609
     55 H23         2.8387   -2.6437    1.5108 H         1 <0>         0.1436
     56 H24         1.5447   -4.4955    2.4798 H         1 <0>         0.1413
     57 H25         2.8470   -3.3862    6.3922 H         1 <0>         0.1394
     58 H26         4.1557   -1.5335    5.4445 H         1 <0>         0.1439
     59 O5          0.2076    3.5675   -7.5713 O.co2     1 <0>        -0.7801
@<TRIPOS>BOND
     1    1    2 1
     2    1   35 1
     3    1   36 1
     4    1   37 1
     5    2    3 1
     6    2    4 1
     7    3   38 1
     8    3   39 1
     9    3   40 1
    10    4    9 ar
    11    4    5 ar
    12    5    6 ar
    13    5   41 1
    14    6    7 ar
    15    6   42 1
    16    7    8 ar
    17    7   10 1
    18    8    9 ar
    19    8   43 1
    20    9   44 1
    21   10   11 1
    22   10   18 1
    23   10   12 1
    24   12   14 2
    25   12   26 1
    26   13   15 1
    27   14   16 1
    28   14   15 1
    29   16   17 2
    30   16   18 am
    31   18   19 1
    32   19   20 1
    33   19   45 1
    34   19   46 1
    35   20   21 1
    36   20   47 1
    37   20   48 1
    38   21   22 1
    39   21   49 1
    40   21   50 1
    41   22   23 1
    42   22   51 1
    43   22   52 1
    44   23   24 1
    45   23   53 1
    46   23   54 1
    47   24   25 2
    48   24   59 1
    49   26   28 1
    50   26   27 2
    51   28   33 ar
    52   28   29 ar
    53   29   30 ar
    54   29   55 1
    55   30   31 ar
    56   30   56 1
    57   31   32 ar
    58   31   34 1
    59   32   33 ar
    60   32   57 1
    61   33   58 1
@<TRIPOS>MOLECULE
ZINC13201450
   61    64     0     0     0
SMALL
USER_CHARGES
2-[3-(4-methoxyphenyl)-5-[2-oxo-2-[[(1S)-1-tetralin-6-ylethyl]amino]ethyl]sulfanyl-1,2,4-triazol-4-yl]acetic acid
@<TRIPOS>ATOM
      1 C1          0.1467    1.1514   -0.3300 C.3       1 <0>        -0.1580
      2 C2         -0.5746    1.5745    0.9513 C.3       1 <0>         0.1853
      3 H1         -1.5889    1.1756    0.9459 H         1 <0>         0.0986
      4 C3          0.1696    1.0384    2.1471 C.ar      1 <0>        -0.0912
      5 C4          1.3018    1.6854    2.6068 C.ar      1 <0>        -0.1148
      6 C5          1.9754    1.1906    3.7040 C.ar      1 <0>        -0.1153
      7 C6          1.5333    0.0397    4.3440 C.ar      1 <0>        -0.0763
      8 C7          0.4073   -0.6058    3.8848 C.ar      1 <0>        -0.0718
      9 C8         -0.2731   -0.1025    2.7833 C.ar      1 <0>        -0.1064
     10 C9         -0.1348   -1.8518    4.5348 C.3       1 <0>        -0.0827
     11 C10         0.9275   -2.5020    5.4189 C.3       1 <0>        -0.1196
     12 C11         1.4968   -1.4315    6.3574 C.3       1 <0>        -0.1210
     13 C12         2.3252   -0.4537    5.5265 C.3       1 <0>        -0.0812
     14 N1         -0.6253    3.0369    1.0230 N.am      1 <0>        -0.7212
     15 C13        -1.6132    3.7083    0.3989 C.2       1 <0>         0.5380
     16 O1         -2.4603    3.1019   -0.2222 O.2       1 <0>        -0.5184
     17 C14        -1.6654    5.2126    0.4727 C.3       1 <0>        -0.1521
     18 S1         -3.0966    5.8131   -0.4586 S.3       1 <0>         0.0878
     19 C15        -2.9172    7.5482   -0.2102 C.2       1 <0>         0.1500
     20 N2         -1.9727    8.1427    0.4832 N.2       1 <0>        -0.3034
     21 N3         -2.1405    9.4165    0.4561 N.2       1 <0>        -0.2824
     22 C16        -3.2070    9.7133   -0.2493 C.2       1 <0>         0.2318
     23 N4         -3.7375    8.5258   -0.6980 N.pl3     1 <0>        -0.4168
     24 C17        -4.9328    8.3470   -1.5260 C.3       1 <0>         0.0410
     25 C18        -6.1333    8.1442   -0.6380 C.2       1 <0>         0.4546
     26 O2         -6.0038    8.1487    0.5633 O.co2     1 <0>        -0.6065
     27 C19        -3.7381   11.0676   -0.5117 C.ar      1 <0>        -0.0456
     28 C20        -2.9126   12.1838   -0.3642 C.ar      1 <0>        -0.0384
     29 C21        -3.4103   13.4447   -0.6145 C.ar      1 <0>        -0.2115
     30 C22        -4.7337   13.6064   -1.0026 C.ar      1 <0>         0.1337
     31 C23        -5.5596   12.4991   -1.1453 C.ar      1 <0>        -0.1444
     32 C24        -5.0680   11.2344   -0.9021 C.ar      1 <0>        -0.0627
     33 O3         -5.2221   14.8513   -1.2428 O.3       1 <0>        -0.3162
     34 C25        -4.3185   15.9458   -1.0770 C.3       1 <0>         0.0267
     35 H2          0.1844    0.0634   -0.3833 H         1 <0>         0.0672
     36 H3          1.1611    1.5503   -0.3245 H         1 <0>         0.0590
     37 H4         -0.3915    1.5392   -1.1949 H         1 <0>         0.0677
     38 H5          1.6552    2.5774    2.1109 H         1 <0>         0.1215
     39 H6          2.8569    1.6993    4.0655 H         1 <0>         0.1221
     40 H7         -1.1558   -0.6090    2.4218 H         1 <0>         0.1237
     41 H8         -1.0000   -1.5918    5.1446 H         1 <0>         0.0770
     42 H9         -0.4397   -2.5570    3.7616 H         1 <0>         0.0749
     43 H10         0.4770   -3.3026    6.0056 H         1 <0>         0.0674
     44 H11         1.7253   -2.9073    4.7965 H         1 <0>         0.0650
     45 H12         0.6803   -0.8989    6.8450 H         1 <0>         0.0661
     46 H13         2.1294   -1.9020    7.1101 H         1 <0>         0.0670
     47 H14         2.6095    0.3953    6.1482 H         1 <0>         0.0741
     48 H15         3.2253   -0.9561    5.1719 H         1 <0>         0.0750
     49 H16         0.0522    3.5219    1.5197 H         1 <0>         0.4024
     50 H17        -1.7534    5.5225    1.5140 H         1 <0>         0.1257
     51 H18        -0.7532    5.6292    0.0455 H         1 <0>         0.1238
     52 H19        -5.0829    9.2326   -2.1434 H         1 <0>         0.1090
     53 H20        -4.8035    7.4749   -2.1670 H         1 <0>         0.1043
     54 H21        -1.8843   12.0592   -0.0584 H         1 <0>         0.1372
     55 H22        -2.7712   14.3084   -0.5046 H         1 <0>         0.1325
     56 H23        -6.5882   12.6290   -1.4477 H         1 <0>         0.1379
     57 H24        -5.7110   10.3738   -1.0129 H         1 <0>         0.1451
     58 H25        -3.9574   15.9663   -0.0488 H         1 <0>         0.0557
     59 H26        -3.4744   15.8262   -1.7563 H         1 <0>         0.0552
     60 H27        -4.8344   16.8799   -1.2996 H         1 <0>         0.0979
     61 O4         -7.3465    7.9587   -1.1816 O.co2     1 <0>        -0.7439
@<TRIPOS>BOND
     1    1    2 1
     2    1   35 1
     3    1   36 1
     4    1   37 1
     5    2    3 1
     6    2    4 1
     7    2   14 1
     8    4    9 ar
     9    4    5 ar
    10    5    6 ar
    11    5   38 1
    12    6    7 ar
    13    6   39 1
    14    7   13 1
    15    7    8 ar
    16    8    9 ar
    17    8   10 1
    18    9   40 1
    19   10   11 1
    20   10   41 1
    21   10   42 1
    22   11   12 1
    23   11   43 1
    24   11   44 1
    25   12   13 1
    26   12   45 1
    27   12   46 1
    28   13   47 1
    29   13   48 1
    30   14   15 am
    31   14   49 1
    32   15   16 2
    33   15   17 1
    34   17   18 1
    35   17   50 1
    36   17   51 1
    37   18   19 1
    38   19   23 1
    39   19   20 2
    40   20   21 1
    41   21   22 2
    42   22   23 1
    43   22   27 1
    44   23   24 1
    45   24   25 1
    46   24   52 1
    47   24   53 1
    48   25   26 2
    49   25   61 1
    50   27   32 ar
    51   27   28 ar
    52   28   29 ar
    53   28   54 1
    54   29   30 ar
    55   29   55 1
    56   30   31 ar
    57   30   33 1
    58   31   32 ar
    59   31   56 1
    60   32   57 1
    61   33   34 1
    62   34   58 1
    63   34   59 1
    64   34   60 1
@<TRIPOS>MOLECULE
ZINC13448352
   58    60     0     0     0
SMALL
USER_CHARGES
3-[2-[2-[1-[2-(4-chlorophenyl)ethyl]-2,5-dimethyl-pyrrol-3-yl]-2-oxo-ethyl]sulfanyl-4-methyl-6-oxo-1H-pyrimidin-5-yl]propanoic acid
@<TRIPOS>ATOM
      1 C1         -0.7196   -5.5735   -0.0214 C.3       1 <0>        -0.0865
      2 C2         -1.3355   -4.1982   -0.0077 C.2       1 <0>         0.0085
      3 C3         -0.6546   -3.0400   -0.0144 C.2       1 <0>        -0.1452
      4 C4         -1.6598   -1.9690    0.0073 C.2       1 <0>        -0.2618
      5 C5         -2.8879   -2.6033    0.0157 C.2       1 <0>         0.1183
      6 N1         -2.6739   -3.9310    0.0065 N.pl3     1 <0>        -0.4320
      7 C6         -3.7290   -4.9474    0.0116 C.3       1 <0>         0.1013
      8 C7         -4.1106   -5.2936   -1.4291 C.3       1 <0>        -0.0959
      9 C8         -5.1958   -6.3391   -1.4239 C.ar      1 <0>        -0.0810
     10 C9         -4.8628   -7.6807   -1.4400 C.ar      1 <0>        -0.1003
     11 C10        -5.8577   -8.6402   -1.4295 C.ar      1 <0>        -0.1073
     12 C11        -7.1872   -8.2576   -1.4143 C.ar      1 <0>        -0.0350
     13 C12        -7.5199   -6.9147   -1.4039 C.ar      1 <0>        -0.1071
     14 C13        -6.5241   -5.9562   -1.4087 C.ar      1 <0>        -0.1006
     15 Cl1        -8.4373   -9.4620   -1.4078 Cl        1 <0>        -0.0681
     16 C14        -4.2333   -1.9246    0.0317 C.3       1 <0>        -0.0983
     17 C15        -1.4117   -0.5257    0.0127 C.2       1 <0>         0.4453
     18 O1         -2.3446    0.2502    0.0258 O.2       1 <0>        -0.4596
     19 C16         0.0021   -0.0041    0.0020 C.3       1 <0>        -0.1374
     20 S1         -0.0225    1.8057    0.0120 S.3       1 <0>         0.0347
     21 C17         1.7084    2.1353   -0.0028 C.2       1 <0>         0.3402
     22 N2          2.1442    3.4255   -0.0000 N.am      1 <0>        -0.6166
     23 H1          1.5052    4.1552    0.0094 H         1 <0>         0.4161
     24 C18         3.4692    3.6853   -0.0108 C.2       1 <0>         0.5287
     25 O2          3.8773    4.8351   -0.0081 O.2       1 <0>        -0.5212
     26 C19         4.3695    2.6056   -0.0248 C.2       1 <0>        -0.2267
     27 C20         3.8747    1.3334   -0.0269 C.2       1 <0>         0.1655
     28 N3          2.5602    1.1281   -0.0108 N.2       1 <0>        -0.5322
     29 C21         4.8192    0.1591   -0.0417 C.3       1 <0>        -0.1073
     30 C22         5.8567    2.8489   -0.0376 C.3       1 <0>        -0.0384
     31 C23         6.3261    3.0625   -1.4781 C.3       1 <0>        -0.1478
     32 C24         7.8133    3.3057   -1.4910 C.2       1 <0>         0.4623
     33 O3          8.4340    3.3080   -0.4544 O.co2     1 <0>        -0.6403
     34 H2         -0.5809   -5.8993   -1.0523 H         1 <0>         0.0727
     35 H3          0.2459   -5.5443    0.4835 H         1 <0>         0.0839
     36 H4         -1.3785   -6.2718    0.4947 H         1 <0>         0.0627
     37 H5          0.4187   -2.9202   -0.0301 H         1 <0>         0.1520
     38 H6         -3.3681   -5.8431    0.5171 H         1 <0>         0.0965
     39 H7         -4.6030   -4.5613    0.5361 H         1 <0>         0.0951
     40 H8         -4.4714   -4.3978   -1.9346 H         1 <0>         0.0845
     41 H9         -3.2366   -5.6797   -1.9537 H         1 <0>         0.0856
     42 H10        -3.8250   -7.9792   -1.4563 H         1 <0>         0.1335
     43 H11        -5.5973   -9.6883   -1.4377 H         1 <0>         0.1354
     44 H12        -8.5575   -6.6154   -1.3917 H         1 <0>         0.1354
     45 H13        -6.7837   -4.9079   -1.4002 H         1 <0>         0.1335
     46 H14        -4.5671   -1.7554   -0.9921 H         1 <0>         0.0808
     47 H15        -4.9538   -2.5584    0.5487 H         1 <0>         0.0653
     48 H16        -4.1521   -0.9692    0.5500 H         1 <0>         0.1003
     49 H17         0.4702   -0.3266   -0.8207 H         1 <0>         0.1183
     50 H18         0.5293   -0.3651    0.8851 H         1 <0>         0.1340
     51 H19         5.0563   -0.1294    0.9823 H         1 <0>         0.0836
     52 H20         4.3487   -0.6791   -0.5557 H         1 <0>         0.0773
     53 H21         5.7356    0.4365   -0.5625 H         1 <0>         0.0905
     54 H22         6.0850    3.7354    0.5541 H         1 <0>         0.0786
     55 H23         6.3696    1.9862    0.3875 H         1 <0>         0.0782
     56 H24         6.0978    2.1760   -2.0698 H         1 <0>         0.0604
     57 H25         5.8131    3.9252   -1.9033 H         1 <0>         0.0641
     58 O4          8.4483    3.5198   -2.6540 O.co2     1 <0>        -0.7763
@<TRIPOS>BOND
     1    1    2 1
     2    1   34 1
     3    1   35 1
     4    1   36 1
     5    2    6 1
     6    2    3 2
     7    3    4 1
     8    3   37 1
     9    4    5 2
    10    4   17 1
    11    5    6 1
    12    5   16 1
    13    6    7 1
    14    7    8 1
    15    7   38 1
    16    7   39 1
    17    8    9 1
    18    8   40 1
    19    8   41 1
    20    9   14 ar
    21    9   10 ar
    22   10   11 ar
    23   10   42 1
    24   11   12 ar
    25   11   43 1
    26   12   13 ar
    27   12   15 1
    28   13   14 ar
    29   13   44 1
    30   14   45 1
    31   16   46 1
    32   16   47 1
    33   16   48 1
    34   17   18 2
    35   17   19 1
    36   19   20 1
    37   19   49 1
    38   19   50 1
    39   20   21 1
    40   21   28 2
    41   21   22 1
    42   22   23 1
    43   22   24 am
    44   24   25 2
    45   24   26 1
    46   26   27 2
    47   26   30 1
    48   27   28 1
    49   27   29 1
    50   29   51 1
    51   29   52 1
    52   29   53 1
    53   30   31 1
    54   30   54 1
    55   30   55 1
    56   31   32 1
    57   31   56 1
    58   31   57 1
    59   32   33 2
    60   32   58 1
@<TRIPOS>MOLECULE
ZINC38664927
   68    69     0     0     0
SMALL
USER_CHARGES

@<TRIPOS>ATOM
      1 C1          1.0725    2.9445    0.9146 C.3       1 <0>        -0.1207
      2 C2          1.3085    1.4837    0.6291 C.2       1 <0>        -0.1255
      3 C3          1.3698    0.6249    1.6165 C.2       1 <0>        -0.1697
      4 C4          1.0776    1.0741    3.0250 C.3       1 <0>        -0.0779
      5 C5         -0.0780    0.2485    3.5941 C.3       1 <0>        -0.0102
      6 H1         -0.1730   -0.7646    3.2032 H         1 <0>         0.1146
      7 C6         -0.4776    0.4909    5.0510 C.3       1 <0>         0.0403
      8 O1         -1.2767    0.9392    3.9521 O.3       1 <0>        -0.3268
      9 C7          0.3057    1.5424    5.8396 C.3       1 <0>        -0.1176
     10 C8         -0.9844   -0.7050    5.8597 C.3       1 <0>        -0.0453
     11 H2         -0.2100   -1.4709    5.8998 H         1 <0>         0.1031
     12 C9         -2.2354   -1.2790    5.1915 C.3       1 <0>         0.1074
     13 H3         -1.9910   -1.6021    4.1796 H         1 <0>         0.0722
     14 C10        -2.7423   -2.4749    6.0002 C.3       1 <0>         0.0667
     15 H4         -1.9678   -3.2409    6.0403 H         1 <0>         0.0891
     16 C11        -3.0853   -2.0215    7.4206 C.3       1 <0>        -0.1325
     17 C12        -1.8344   -1.4474    8.0888 C.3       1 <0>        -0.1398
     18 C13        -1.3275   -0.2515    7.2801 C.3       1 <0>         0.1427
     19 C14        -2.4145    0.8236    7.2237 C.3       1 <0>        -0.1802
     20 O2         -0.1591    0.2847    7.9042 O.3       1 <0>        -0.5546
     21 O3         -3.9107   -3.0111    5.3761 O.3       1 <0>        -0.3398
     22 C15        -4.1323   -4.3338    5.5248 C.2       1 <0>         0.4965
     23 O4         -3.3538   -5.0125    6.1673 O.2       1 <0>        -0.5207
     24 C16        -5.3080   -4.9510    4.9139 C.2       1 <0>        -0.2365
     25 C17        -5.5310   -6.2817    5.0635 C.2       1 <0>         0.0162
     26 C18        -6.6658   -6.8775    4.4738 C.2       1 <0>        -0.2011
     27 C19        -6.8893   -8.2111    4.6237 C.2       1 <0>        -0.0224
     28 C20        -8.0227   -8.8061    4.0347 C.2       1 <0>        -0.1940
     29 C21        -8.2464  -10.1405    4.1848 C.2       1 <0>        -0.0323
     30 C22        -9.3797  -10.7355    3.5958 C.2       1 <0>        -0.1545
     31 C23        -9.6032  -12.0691    3.7458 C.2       1 <0>        -0.1245
     32 C24       -10.7399  -12.6658    3.1551 C.2       1 <0>         0.4921
     33 O5        -11.5242  -11.9821    2.5078 O.co2     1 <0>        -0.6877
     34 O6        -10.9412  -13.8671    3.2901 O.co2     1 <0>        -0.6932
     35 O7         -3.2507   -0.2749    5.1388 O.3       1 <0>        -0.3499
     36 C25        -4.1381   -0.4033    4.0261 C.3       1 <0>         0.0281
     37 C26         1.4739    1.0108   -0.7922 C.3       1 <0>        -0.1187
     38 H5          1.8260    3.3041    1.6153 H         1 <0>         0.0653
     39 H6          1.1398    3.5116   -0.0138 H         1 <0>         0.0599
     40 H7          0.0812    3.0744    1.3487 H         1 <0>         0.0684
     41 H8          1.6298   -0.4049    1.4210 H         1 <0>         0.1104
     42 H9          1.9642    0.9323    3.6429 H         1 <0>         0.0858
     43 H10         0.8028    2.1289    3.0204 H         1 <0>         0.0823
     44 H11         0.5945    2.3554    5.1736 H         1 <0>         0.0517
     45 H12        -0.3190    1.9345    6.6421 H         1 <0>         0.0823
     46 H13         1.1996    1.0862    6.2649 H         1 <0>         0.0806
     47 H14        -3.8598   -1.2555    7.3804 H         1 <0>         0.0867
     48 H15        -3.4464   -2.8734    7.9967 H         1 <0>         0.0706
     49 H16        -2.0787   -1.1244    9.1007 H         1 <0>         0.0749
     50 H17        -1.0599   -2.2134    8.1289 H         1 <0>         0.0728
     51 H18        -3.3651    0.3653    6.9510 H         1 <0>         0.0946
     52 H19        -2.5071    1.2983    8.2006 H         1 <0>         0.0470
     53 H20        -2.1459    1.5733    6.4795 H         1 <0>         0.0701
     54 H21        -0.3029    0.5927    8.8094 H         1 <0>         0.3740
     55 H22        -5.9992   -4.3484    4.3434 H         1 <0>         0.1361
     56 H23        -4.8397   -6.8843    5.6340 H         1 <0>         0.1256
     57 H24        -7.3571   -6.2749    3.9033 H         1 <0>         0.1228
     58 H25        -6.1981   -8.8137    5.1942 H         1 <0>         0.1166
     59 H26        -8.7140   -8.2035    3.4642 H         1 <0>         0.1209
     60 H27        -7.5551  -10.7431    4.7552 H         1 <0>         0.1135
     61 H28       -10.0709  -10.1329    3.0253 H         1 <0>         0.1280
     62 H29        -8.9119  -12.6717    4.3162 H         1 <0>         0.1034
     63 H30        -3.5698   -0.3351    3.0985 H         1 <0>         0.0384
     64 H31        -4.6424   -1.3684    4.0731 H         1 <0>         0.0527
     65 H32        -4.8788    0.3957    4.0580 H         1 <0>         0.0794
     66 H33         2.5281    1.0474   -1.0669 H         1 <0>         0.0659
     67 H34         1.1111   -0.0134   -0.8789 H         1 <0>         0.0626
     68 H35         0.9021    1.6564   -1.4588 H         1 <0>         0.0637
@<TRIPOS>BOND
     1    1    2 1
     2    1   38 1
     3    1   39 1
     4    1   40 1
     5    2    3 2
     6    2   37 1
     7    3    4 1
     8    3   41 1
     9    4    5 1
    10    4   42 1
    11    4   43 1
    12    5    6 1
    13    5    8 1
    14    5    7 1
    15    7    8 1
    16    7    9 1
    17    7   10 1
    18    9   44 1
    19    9   45 1
    20    9   46 1
    21   10   11 1
    22   10   18 1
    23   10   12 1
    24   12   13 1
    25   12   14 1
    26   12   35 1
    27   14   15 1
    28   14   16 1
    29   14   21 1
    30   16   17 1
    31   16   47 1
    32   16   48 1
    33   17   18 1
    34   17   49 1
    35   17   50 1
    36   18   19 1
    37   18   20 1
    38   19   51 1
    39   19   52 1
    40   19   53 1
    41   20   54 1
    42   21   22 1
    43   22   23 2
    44   22   24 1
    45   24   25 2
    46   24   55 1
    47   25   26 1
    48   25   56 1
    49   26   27 2
    50   26   57 1
    51   27   28 1
    52   27   58 1
    53   28   29 2
    54   28   59 1
    55   29   30 1
    56   29   60 1
    57   30   31 2
    58   30   61 1
    59   31   32 1
    60   31   62 1
    61   32   33 2
    62   32   34 1
    63   35   36 1
    64   36   63 1
    65   36   64 1
    66   36   65 1
    67   37   66 1
    68   37   67 1
    69   37   68 1
@<TRIPOS>MOLECULE
ZINC40076367
   60    62     0     0     0
SMALL
USER_CHARGES

@<TRIPOS>ATOM
      1 C1         -1.9002    1.2100    1.2938 C.3       1 <0>        -0.1509
      2 C2         -1.6442   -0.2779    1.0460 C.3       1 <0>        -0.1226
      3 C3         -0.7261   -0.8266    2.1400 C.3       1 <0>        -0.1171
      4 C4         -0.4701   -2.3145    1.8922 C.3       1 <0>         0.0576
      5 O1          0.3875   -2.8269    2.9140 O.3       1 <0>        -0.3083
      6 C5          0.7159   -4.1446    2.8410 C.ar      1 <0>         0.0924
      7 C6          0.2282   -4.9254    1.8054 C.ar      1 <0>        -0.1716
      8 C7          0.5635   -6.2646    1.7324 C.ar      1 <0>        -0.0825
      9 C8          1.3847   -6.8280    2.6913 C.ar      1 <0>        -0.0693
     10 C9          1.8743   -6.0547    3.7273 C.ar      1 <0>        -0.1644
     11 C10         1.5472   -4.7104    3.8029 C.ar      1 <0>         0.0935
     12 O2          2.0328   -3.9469    4.8182 O.3       1 <0>        -0.3099
     13 C11         2.9615   -4.5673    5.7096 C.3       1 <0>         0.0279
     14 C12         1.7466   -8.2885    2.6071 C.3       1 <0>         0.2681
     15 H1          2.5632   -8.5120    3.2936 H         1 <0>         0.0648
     16 C13         0.5436   -9.1415    2.9357 C.2       1 <0>        -0.5039
     17 C14         0.2865   -9.8930    1.8395 C.2       1 <0>         0.2662
     18 C15         1.2756   -9.5727    0.7885 C.2       1 <0>         0.5163
     19 O3          1.3102  -10.0809   -0.3145 O.2       1 <0>        -0.5224
     20 N1          2.1327   -8.6344    1.2341 N.am      1 <0>        -0.6099
     21 C16         3.2512   -8.0599    0.4825 C.3       1 <0>         0.1368
     22 C17         4.5109   -8.8934    0.7259 C.3       1 <0>         0.0587
     23 O4          4.3265  -10.2039    0.1866 O.3       1 <0>        -0.5532
     24 O5         -0.7158  -10.7941    1.7243 O.3       1 <0>        -0.6539
     25 C18        -0.2012   -9.1534    4.1982 C.2       1 <0>         0.5015
     26 O6         -1.3666   -8.8049    4.2202 O.2       1 <0>        -0.4753
     27 C19         0.4639   -9.5889    5.4448 C.ar      1 <0>        -0.1399
     28 C20         1.7649  -10.0952    5.4058 C.ar      1 <0>        -0.0622
     29 C21         2.3796  -10.4992    6.5725 C.ar      1 <0>        -0.1390
     30 C22         1.7099  -10.4042    7.7799 C.ar      1 <0>        -0.0780
     31 C23         0.4206   -9.9034    7.8258 C.ar      1 <0>        -0.1377
     32 C24        -0.2038   -9.4904    6.6674 C.ar      1 <0>        -0.0721
     33 C25         2.3877  -10.8485    9.0505 C.3       1 <0>        -0.1126
     34 H2         -0.9531    1.7493    1.2775 H         1 <0>         0.0546
     35 H3         -2.5543    1.6009    0.5143 H         1 <0>         0.0553
     36 H4         -2.3756    1.3399    2.2660 H         1 <0>         0.0552
     37 H5         -2.5913   -0.8172    1.0622 H         1 <0>         0.0652
     38 H6         -1.1688   -0.4078    0.0737 H         1 <0>         0.0643
     39 H7          0.2211   -0.2873    2.1237 H         1 <0>         0.0717
     40 H8         -1.2015   -0.6967    3.1122 H         1 <0>         0.0726
     41 H9         -1.4172   -2.8538    1.9085 H         1 <0>         0.0603
     42 H10         0.0054   -2.4444    0.9200 H         1 <0>         0.0586
     43 H11        -0.4141   -4.4879    1.0554 H         1 <0>         0.1299
     44 H12         0.1827   -6.8721    0.9247 H         1 <0>         0.1231
     45 H13         2.5154   -6.4974    4.4753 H         1 <0>         0.1315
     46 H14         3.8378   -4.8956    5.1506 H         1 <0>         0.0518
     47 H15         3.2651   -3.8518    6.4738 H         1 <0>         0.0949
     48 H16         2.4900   -5.4278    6.1843 H         1 <0>         0.0542
     49 H17         3.0136   -8.0626   -0.5813 H         1 <0>         0.0835
     50 H18         3.4236   -7.0358    0.8136 H         1 <0>         0.0872
     51 H19         5.3617   -8.4167    0.2392 H         1 <0>         0.0482
     52 H20         4.6981   -8.9645    1.7973 H         1 <0>         0.0452
     53 H21         5.0875  -10.7886    0.3051 H         1 <0>         0.3696
     54 H22         2.2883  -10.1706    4.4641 H         1 <0>         0.1330
     55 H23         3.3856  -10.8910    6.5438 H         1 <0>         0.1201
     56 H24        -0.0964   -9.8322    8.7714 H         1 <0>         0.1196
     57 H25        -1.2083   -9.0956    6.7052 H         1 <0>         0.1278
     58 H26         2.9245  -10.0074    9.4892 H         1 <0>         0.0677
     59 H27         1.6382  -11.2087    9.7552 H         1 <0>         0.0638
     60 H28         3.0905  -11.6508    8.8259 H         1 <0>         0.0644
@<TRIPOS>BOND
     1    1    2 1
     2    1   34 1
     3    1   35 1
     4    1   36 1
     5    2    3 1
     6    2   37 1
     7    2   38 1
     8    3    4 1
     9    3   39 1
    10    3   40 1
    11    4    5 1
    12    4   41 1
    13    4   42 1
    14    5    6 1
    15    6   11 ar
    16    6    7 ar
    17    7    8 ar
    18    7   43 1
    19    8    9 ar
    20    8   44 1
    21    9   10 ar
    22    9   14 1
    23   10   11 ar
    24   10   45 1
    25   11   12 1
    26   12   13 1
    27   13   46 1
    28   13   47 1
    29   13   48 1
    30   14   15 1
    31   14   20 1
    32   14   16 1
    33   16   17 2
    34   16   25 1
    35   17   18 1
    36   17   24 1
    37   18   19 2
    38   18   20 am
    39   20   21 1
    40   21   22 1
    41   21   49 1
    42   21   50 1
    43   22   23 1
    44   22   51 1
    45   22   52 1
    46   23   53 1
    47   25   26 2
    48   25   27 1
    49   27   32 ar
    50   27   28 ar
    51   28   29 ar
    52   28   54 1
    53   29   30 ar
    54   29   55 1
    55   30   31 ar
    56   30   33 1
    57   31   32 ar
    58   31   56 1
    59   32   57 1
    60   33   58 1
    61   33   59 1
    62   33   60 1
@<TRIPOS>MOLECULE
ZINC02097925
   56    58     0     0     0
SMALL
USER_CHARGES
2-[3-(tetramethyl-oxo-BLAHyl)propanoylamino]pentanoic acid
@<TRIPOS>ATOM
      1 C1         -0.0366    1.0992   -2.4903 C.3       1 <0>        -0.1495
      2 C2         -0.7527    1.5927   -1.2315 C.3       1 <0>        -0.1234
      3 C3         -0.0127    1.0858    0.0080 C.3       1 <0>        -0.1085
      4 C4         -0.7288    1.5792    1.2668 C.3       1 <0>         0.1009
      5 H1         -1.7755    1.2768    1.2315 H         1 <0>         0.0879
      6 C5         -0.0738    0.9805    2.4848 C.2       1 <0>         0.4588
      7 O1          0.4134    1.7002    3.3241 O.co2     1 <0>        -0.6317
      8 N1         -0.6447    3.0402    1.3356 N.am      1 <0>        -0.7001
      9 C6         -1.5740    3.7373    2.0189 C.2       1 <0>         0.5170
     10 O2         -2.4799    3.1552    2.5768 O.2       1 <0>        -0.5462
     11 C7         -1.4874    5.2402    2.0896 C.3       1 <0>        -0.1316
     12 C8         -2.6545    5.7798    2.9189 C.3       1 <0>        -0.0479
     13 C9         -2.5679    7.2826    2.9896 C.2       1 <0>        -0.2128
     14 C10        -1.8808    7.8779    3.9974 C.2       1 <0>         0.0268
     15 C11        -1.8187    9.3426    4.0231 C.ar      1 <0>        -0.1455
     16 C12        -1.1227   10.0096    5.0313 C.ar      1 <0>        -0.0122
     17 C13        -1.0890   11.3970    5.0302 C.ar      1 <0>        -0.1385
     18 C14        -0.4747   12.4054    5.9051 C.2       1 <0>        -0.1688
     19 C15        -0.7954   13.5962    5.3842 C.2       1 <0>         0.0289
     20 O3         -1.5438   13.4352    4.2784 O.3       1 <0>        -0.1857
     21 C16        -1.7498   12.1272    4.0213 C.ar      1 <0>         0.1015
     22 C17        -2.4394   11.4567    3.0220 C.ar      1 <0>        -0.0918
     23 C18        -2.4796   10.0732    3.0140 C.ar      1 <0>         0.1628
     24 O4         -3.1510    9.4150    2.0421 O.3       1 <0>        -0.2683
     25 C19        -3.2058    8.0748    2.0115 C.2       1 <0>         0.5178
     26 O5         -3.8230    7.5273    1.1158 O.2       1 <0>        -0.4499
     27 C20        -3.1466   12.2360    1.9433 C.3       1 <0>        -0.1072
     28 C21        -0.3779   14.9268    5.9555 C.3       1 <0>        -0.0789
     29 C22         0.3497   12.1504    7.1406 C.3       1 <0>        -0.0827
     30 C23        -1.1960    7.0555    5.0584 C.3       1 <0>        -0.1341
     31 H2         -0.5637    1.4603   -3.3734 H         1 <0>         0.0482
     32 H3          0.9860    1.4765   -2.4981 H         1 <0>         0.0510
     33 H4         -0.0218    0.0093   -2.4963 H         1 <0>         0.0538
     34 H5         -1.7753    1.2154   -1.2238 H         1 <0>         0.0600
     35 H6         -0.7675    2.6825   -1.2255 H         1 <0>         0.0573
     36 H7          0.0021   -0.0041    0.0020 H         1 <0>         0.0851
     37 H8          1.0099    1.4631    0.0003 H         1 <0>         0.0588
     38 H9          0.0799    3.5058    0.8893 H         1 <0>         0.3908
     39 H10        -0.5458    5.5283    2.5569 H         1 <0>         0.0904
     40 H11        -1.5350    5.6546    1.0826 H         1 <0>         0.0888
     41 H12        -3.5961    5.4917    2.4516 H         1 <0>         0.0912
     42 H13        -2.6069    5.3653    3.9259 H         1 <0>         0.0926
     43 H14        -0.6161    9.4522    5.8053 H         1 <0>         0.1468
     44 H15        -4.1692   12.4453    2.2573 H         1 <0>         0.0756
     45 H16        -2.6207   13.1747    1.7691 H         1 <0>         0.0715
     46 H17        -3.1614   11.6516    1.0233 H         1 <0>         0.0788
     47 H18        -0.7755   15.7296    5.3346 H         1 <0>         0.0800
     48 H19        -0.7664   15.0250    6.9691 H         1 <0>         0.0903
     49 H20         0.7102   14.9881    5.9758 H         1 <0>         0.0905
     50 H21        -0.3041   12.1105    8.0118 H         1 <0>         0.0721
     51 H22         0.8754   11.2012    7.0370 H         1 <0>         0.0706
     52 H23         1.0741   12.9551    7.2665 H         1 <0>         0.0703
     53 H24        -0.1758    6.8345    4.7447 H         1 <0>         0.0947
     54 H25        -1.1754    7.6142    5.9942 H         1 <0>         0.0779
     55 H26        -1.7415    6.1232    5.2039 H         1 <0>         0.0943
     56 O6         -0.0315   -0.3525    2.6371 O.co2     1 <0>        -0.7683
@<TRIPOS>BOND
     1    1    2 1
     2    1   31 1
     3    1   32 1
     4    1   33 1
     5    2    3 1
     6    2   34 1
     7    2   35 1
     8    3    4 1
     9    3   36 1
    10    3   37 1
    11    4    5 1
    12    4    6 1
    13    4    8 1
    14    6    7 2
    15    6   56 1
    16    8    9 am
    17    8   38 1
    18    9   10 2
    19    9   11 1
    20   11   12 1
    21   11   39 1
    22   11   40 1
    23   12   13 1
    24   12   41 1
    25   12   42 1
    26   13   25 1
    27   13   14 2
    28   14   15 1
    29   14   30 1
    30   15   23 ar
    31   15   16 ar
    32   16   17 ar
    33   16   43 1
    34   17   21 ar
    35   17   18 1
    36   18   19 2
    37   18   29 1
    38   19   20 1
    39   19   28 1
    40   20   21 1
    41   21   22 ar
    42   22   23 ar
    43   22   27 1
    44   23   24 1
    45   24   25 1
    46   25   26 2
    47   27   44 1
    48   27   45 1
    49   27   46 1
    50   28   47 1
    51   28   48 1
    52   28   49 1
    53   29   50 1
    54   29   51 1
    55   29   52 1
    56   30   53 1
    57   30   54 1
    58   30   55 1
@<TRIPOS>MOLECULE
ZINC13203931
   53    55     0     0     0
SMALL
USER_CHARGES
2-[3-[(1R)-2-[[(1R,2R,3R)-2,3-dimethylcyclohexyl]amino]-1-methyl-2-oxo-ethyl]sulfanyl-5-(2-thienyl)-1,2,4-triazol-4-yl]acetic acid
@<TRIPOS>ATOM
      1 C1        -10.1915   12.1640    0.1559 C.3       1 <0>        -0.1579
      2 C2        -10.7613   11.0644    1.0543 C.3       1 <0>        -0.0814
      3 H1        -11.8269   10.9492    0.8562 H         1 <0>         0.0732
      4 C3        -10.5536   11.4458    2.5214 C.3       1 <0>        -0.1166
      5 C4         -9.0578   11.6075    2.7995 C.3       1 <0>        -0.1187
      6 C5         -8.3395   10.2882    2.5089 C.3       1 <0>        -0.1312
      7 C6         -8.5472    9.9068    1.0418 C.3       1 <0>         0.1491
      8 H2         -8.1413   10.6902    0.4017 H         1 <0>         0.0940
      9 C7        -10.0430    9.7451    0.7637 C.3       1 <0>        -0.0927
     10 H3        -10.4490    8.9618    1.4037 H         1 <0>         0.0750
     11 C8        -10.2507    9.3637   -0.7034 C.3       1 <0>        -0.1514
     12 N1         -7.8594    8.6436    0.7635 N.am      1 <0>        -0.7199
     13 C9         -6.5502    8.6454    0.4435 C.2       1 <0>         0.5398
     14 O1         -5.9415    9.6928    0.3858 O.2       1 <0>        -0.5180
     15 C10        -5.8427    7.3459    0.1573 C.3       1 <0>        -0.1126
     16 H4         -6.2487    6.5625    0.7973 H         1 <0>         0.1197
     17 C11        -6.0504    6.9645   -1.3098 C.3       1 <0>        -0.1429
     18 S1         -4.0732    7.5372    0.4862 S.3       1 <0>         0.0810
     19 C12        -3.5327    5.8805    0.2257 C.2       1 <0>         0.1596
     20 N2         -4.2866    4.8593   -0.1122 N.2       1 <0>        -0.2968
     21 N3         -3.5705    3.7983   -0.2247 N.2       1 <0>        -0.2663
     22 C13        -2.3135    4.0747    0.0445 C.2       1 <0>         0.2637
     23 N4         -2.2505    5.4189    0.3377 N.pl3     1 <0>        -0.4158
     24 C14        -1.0589    6.1924    0.6954 C.3       1 <0>         0.0438
     25 C15        -0.4258    6.7466   -0.5548 C.2       1 <0>         0.4602
     26 O2         -0.9193    6.5188   -1.6339 O.co2     1 <0>        -0.6078
     27 C16        -1.1864    3.1283    0.0292 C.2       1 <0>        -0.0860
     28 C17        -1.2093    1.7564    0.0173 C.2       1 <0>        -0.1195
     29 C18        -0.0126    1.0758    0.0080 C.2       1 <0>        -0.1592
     30 C19         1.1493    1.7791    0.0006 C.2       1 <0>        -0.1866
     31 S2          0.5666    3.4664    0.0146 S.3       1 <0>         0.1188
     32 H5        -10.3395   11.8923   -0.8893 H         1 <0>         0.0582
     33 H6        -10.7032   13.1039    0.3629 H         1 <0>         0.0540
     34 H7         -9.1259   12.2792    0.3540 H         1 <0>         0.0630
     35 H8        -11.0653   12.3857    2.7284 H         1 <0>         0.0632
     36 H9        -10.9596   10.6624    3.1614 H         1 <0>         0.0619
     37 H10        -8.6519   12.3908    2.1594 H         1 <0>         0.0680
     38 H11        -8.9099   11.8792    3.8446 H         1 <0>         0.0638
     39 H12        -8.7455    9.5048    3.1489 H         1 <0>         0.0635
     40 H13        -7.2739   10.4034    2.7070 H         1 <0>         0.0699
     41 H14        -9.7390    8.4239   -0.9104 H         1 <0>         0.0570
     42 H15       -11.3163    9.2486   -0.9015 H         1 <0>         0.0562
     43 H16        -9.8448   10.1471   -1.3434 H         1 <0>         0.0605
     44 H17        -8.3463    7.8059    0.8096 H         1 <0>         0.4011
     45 H18        -5.6445    7.7479   -1.9499 H         1 <0>         0.0709
     46 H19        -5.5387    6.0246   -1.5169 H         1 <0>         0.0928
     47 H20        -7.1161    6.8493   -1.5079 H         1 <0>         0.0660
     48 H21        -1.3428    7.0136    1.3536 H         1 <0>         0.1066
     49 H22        -0.3463    5.5459    1.2077 H         1 <0>         0.1035
     50 H23        -2.1474    1.2212    0.0188 H         1 <0>         0.1418
     51 H24         0.0021   -0.0041    0.0020 H         1 <0>         0.1361
     52 H25         2.1649    1.4119   -0.0110 H         1 <0>         0.1874
     53 O3          0.6864    7.4933   -0.4696 O.co2     1 <0>        -0.7421
@<TRIPOS>BOND
     1    1    2 1
     2    1   32 1
     3    1   33 1
     4    1   34 1
     5    2    3 1
     6    2    9 1
     7    2    4 1
     8    4    5 1
     9    4   35 1
    10    4   36 1
    11    5    6 1
    12    5   37 1
    13    5   38 1
    14    6    7 1
    15    6   39 1
    16    6   40 1
    17    7    8 1
    18    7    9 1
    19    7   12 1
    20    9   10 1
    21    9   11 1
    22   11   41 1
    23   11   42 1
    24   11   43 1
    25   12   13 am
    26   12   44 1
    27   13   14 2
    28   13   15 1
    29   15   16 1
    30   15   17 1
    31   15   18 1
    32   17   45 1
    33   17   46 1
    34   17   47 1
    35   18   19 1
    36   19   23 1
    37   19   20 2
    38   20   21 1
    39   21   22 2
    40   22   23 1
    41   22   27 1
    42   23   24 1
    43   24   25 1
    44   24   48 1
    45   24   49 1
    46   25   26 2
    47   25   53 1
    48   27   31 1
    49   27   28 2
    50   28   29 1
    51   28   50 1
    52   29   30 2
    53   29   51 1
    54   30   31 1
    55   30   52 1
@<TRIPOS>MOLECULE
ZINC16935357
   47    48     0     0     0
SMALL
USER_CHARGES
(2S,3S)-2-[(5Z)-5-[(4-hydroxy-3,5-dimethoxy-phenyl)methylene]-4-oxo-2-thioxo-thiazolidin-3-yl]-3-methyl-pentanoic acid
@<TRIPOS>ATOM
      1 C1         -2.6188    1.1663   -2.9310 C.3       1 <0>        -0.1423
      2 C2         -1.5951    0.5236   -1.9930 C.3       1 <0>        -0.1323
      3 C3         -1.8966   -0.9701   -1.8555 C.3       1 <0>        -0.0682
      4 H1         -1.9270   -1.4272   -2.8446 H         1 <0>         0.0911
      5 C4         -3.2498   -1.1558   -1.1660 C.3       1 <0>        -0.1158
      6 C5         -0.8023   -1.6364   -1.0191 C.3       1 <0>         0.0704
      7 H2          0.1721   -1.4204   -1.4572 H         1 <0>         0.0973
      8 C6         -0.8500   -1.1009    0.3887 C.2       1 <0>         0.4784
      9 O1         -1.0441   -1.8524    1.3147 O.co2     1 <0>        -0.6107
     10 N1         -1.0179   -3.0853   -0.9980 N.am      1 <0>        -0.4912
     11 C7         -1.9948   -3.6039   -1.7229 C.2       1 <0>         0.5287
     12 O2         -2.7212   -2.9080   -2.4082 O.2       1 <0>        -0.4424
     13 C8         -2.1601   -5.0697   -1.6586 C.2       1 <0>        -0.1935
     14 C9         -3.0628   -5.8671   -2.2848 C.2       1 <0>         0.0372
     15 C10        -2.9938   -7.3246   -2.1200 C.ar      1 <0>        -0.0063
     16 C11        -1.8014   -7.9281   -1.7028 C.ar      1 <0>        -0.2102
     17 C12        -1.7424   -9.2995   -1.5429 C.ar      1 <0>         0.1486
     18 C13        -2.8634  -10.0821   -1.8080 C.ar      1 <0>         0.0547
     19 C14        -4.0497   -9.4862   -2.2287 C.ar      1 <0>         0.1400
     20 C15        -4.1187   -8.1150   -2.3851 C.ar      1 <0>        -0.2008
     21 O3         -5.1416  -10.2549   -2.4864 O.3       1 <0>        -0.3023
     22 C16        -6.3250   -9.5780   -2.9147 C.3       1 <0>         0.0225
     23 O4         -2.7995  -11.4315   -1.6554 O.3       1 <0>        -0.4706
     24 O5         -0.5864   -9.8861   -1.1319 O.3       1 <0>        -0.3002
     25 C17         0.5242   -9.0235   -0.8777 C.3       1 <0>         0.0186
     26 S1         -0.8450   -5.5057   -0.5289 S.3       1 <0>         0.0086
     27 C18        -0.2121   -3.8605   -0.2441 C.2       1 <0>         0.2702
     28 S2          1.0984   -3.3826    0.7484 S.2       1 <0>        -0.2659
     29 H3         -2.4040    2.2304   -3.0289 H         1 <0>         0.0470
     30 H4         -2.5616    0.6924   -3.9109 H         1 <0>         0.0417
     31 H5         -3.6202    1.0340   -2.5213 H         1 <0>         0.0499
     32 H6         -1.6523    0.9975   -1.0131 H         1 <0>         0.1054
     33 H7         -0.5937    0.6559   -2.4027 H         1 <0>         0.0501
     34 H8         -3.3188   -2.1682   -0.7681 H         1 <0>         0.0395
     35 H9         -3.3440   -0.4380   -0.3513 H         1 <0>         0.0476
     36 H10        -4.0505   -0.9937   -1.8876 H         1 <0>         0.0503
     37 H11        -3.8317   -5.4295   -2.9042 H         1 <0>         0.1626
     38 H12        -0.9301   -7.3224   -1.5019 H         1 <0>         0.1488
     39 H13        -5.0389   -7.6536   -2.7117 H         1 <0>         0.1435
     40 H14        -6.1209   -9.0396   -3.8402 H         1 <0>         0.0588
     41 H15        -7.1183  -10.3058   -3.0852 H         1 <0>         0.1032
     42 H16        -6.6386   -8.8724   -2.1454 H         1 <0>         0.0598
     43 H17        -2.5244  -11.9049   -2.4525 H         1 <0>         0.3833
     44 H18         1.3801   -9.6178   -0.5577 H         1 <0>         0.1073
     45 H19         0.7787   -8.4810   -1.7882 H         1 <0>         0.0601
     46 H20         0.2610   -8.3138   -0.0935 H         1 <0>         0.0643
     47 O6         -0.6768    0.2110    0.6140 O.co2     1 <0>        -0.7368
@<TRIPOS>BOND
     1    1    2 1
     2    1   29 1
     3    1   30 1
     4    1   31 1
     5    2    3 1
     6    2   32 1
     7    2   33 1
     8    3    4 1
     9    3    5 1
    10    3    6 1
    11    5   34 1
    12    5   35 1
    13    5   36 1
    14    6    7 1
    15    6    8 1
    16    6   10 1
    17    8    9 2
    18    8   47 1
    19   10   27 1
    20   10   11 am
    21   11   12 2
    22   11   13 1
    23   13   14 2
    24   13   26 1
    25   14   15 1
    26   14   37 1
    27   15   20 ar
    28   15   16 ar
    29   16   17 ar
    30   16   38 1
    31   17   18 ar
    32   17   24 1
    33   18   19 ar
    34   18   23 1
    35   19   20 ar
    36   19   21 1
    37   20   39 1
    38   21   22 1
    39   22   40 1
    40   22   41 1
    41   22   42 1
    42   23   43 1
    43   24   25 1
    44   25   44 1
    45   25   45 1
    46   25   46 1
    47   26   27 1
    48   27   28 2
@<TRIPOS>MOLECULE
ZINC39481429
   50    51     0     0     0
SMALL
USER_CHARGES

@<TRIPOS>ATOM
      1 C1         -0.0187    1.5258    0.0104 C.3       1 <0>        -0.1511
      2 C2          0.0021   -0.0041    0.0020 C.3       1 <0>        -0.1198
      3 C3          0.7421   -0.5109    1.2415 C.3       1 <0>        -0.0569
      4 C4          0.7625   -2.0177    1.2333 C.ar      1 <0>        -0.1882
      5 C5         -0.2631   -2.7243    1.8335 C.ar      1 <0>        -0.0605
      6 C6         -0.2504   -4.1069    1.8295 C.ar      1 <0>        -0.2595
      7 C7          0.7928   -4.7888    1.2217 C.ar      1 <0>         0.2793
      8 C8          1.8272   -4.0761    0.6158 C.ar      1 <0>         0.0948
      9 C9          1.8040   -2.6896    0.6204 C.ar      1 <0>        -0.0726
     10 N1          2.8839   -4.7585    0.0007 N.pl3     1 <0>        -0.6384
     11 C10         2.8197   -5.1242   -1.4224 C.3       1 <0>         0.1610
     12 C11         3.1449   -6.6156   -1.5570 C.3       1 <0>         0.0482
     13 N2          4.4295   -6.8945   -0.9013 N.3       1 <0>        -0.7043
     14 C12         4.3627   -6.6201    0.5403 C.3       1 <0>         0.2433
     15 H1          3.5600   -7.2079    0.9856 H         1 <0>         0.0461
     16 C13         4.0900   -5.1234    0.7592 C.3       1 <0>         0.1799
     17 O1          5.6061   -6.9713    1.1507 O.3       1 <0>        -0.3819
     18 C14         5.8532   -8.3780    1.1986 C.3       1 <0>         0.0558
     19 C15         7.2043   -8.6359    1.8687 C.3       1 <0>        -0.1475
     20 N3          0.8080   -6.1889    1.2168 N.2       1 <0>        -1.1012
     21 S1         -0.4212   -7.0328    1.9375 S.o2      1 <0>         2.7012
     22 O2         -0.3372   -6.7628    3.3300 O.2       1 <0>        -1.0645
     23 O3         -1.5939   -6.7688    1.1796 O.2       1 <0>        -1.0336
     24 O4         -0.1140   -8.5131    1.7621 O.3       1 <0>        -0.7498
     25 C16         0.9232   -8.9968    2.6178 C.3       1 <0>         0.0525
     26 H2          1.0039    1.9031    0.0027 H         1 <0>         0.0501
     27 H3         -0.5459    1.8868   -0.8726 H         1 <0>         0.0478
     28 H4         -0.5289    1.8773    0.9072 H         1 <0>         0.0499
     29 H5         -1.0205   -0.3814    0.0098 H         1 <0>         0.0593
     30 H6          0.5123   -0.3556   -0.8948 H         1 <0>         0.0597
     31 H7          1.7647   -0.1336    1.2338 H         1 <0>         0.0568
     32 H8          0.2319   -0.1594    2.1383 H         1 <0>         0.0561
     33 H9         -1.0764   -2.1947    2.3073 H         1 <0>         0.0993
     34 H10        -1.0529   -4.6557    2.2999 H         1 <0>         0.0949
     35 H11         2.6013   -2.1346    0.1485 H         1 <0>         0.1039
     36 H12         1.8173   -4.9321   -1.8050 H         1 <0>         0.0676
     37 H13         3.5475   -4.5386   -1.9841 H         1 <0>         0.0408
     38 H14         2.3592   -7.2035   -1.0824 H         1 <0>         0.0493
     39 H15         3.2103   -6.8799   -2.6124 H         1 <0>         0.0675
     40 H16         4.9376   -4.5378    0.4032 H         1 <0>         0.0481
     41 H17         3.9279   -4.9308    1.8198 H         1 <0>         0.0699
     42 H18         5.0646   -8.8661    1.7713 H         1 <0>         0.0432
     43 H19         5.8678   -8.7791    0.1852 H         1 <0>         0.0447
     44 H20         7.9929   -8.1478    1.2961 H         1 <0>         0.0620
     45 H21         7.1897   -8.2348    2.8821 H         1 <0>         0.0617
     46 H22         7.3927   -9.7089    1.9053 H         1 <0>         0.0658
     47 H23         1.8448   -8.4510    2.4161 H         1 <0>         0.0722
     48 H24         0.6340   -8.8495    3.6584 H         1 <0>         0.0761
     49 H25         1.0819  -10.0591    2.4318 H         1 <0>         0.0935
     50 H26         4.7260   -7.8431   -1.0755 H         1 <0>         0.3275
@<TRIPOS>BOND
     1    1    2 1
     2    1   26 1
     3    1   27 1
     4    1   28 1
     5    2    3 1
     6    2   29 1
     7    2   30 1
     8    3    4 1
     9    3   31 1
    10    3   32 1
    11    4    9 ar
    12    4    5 ar
    13    5    6 ar
    14    5   33 1
    15    6    7 ar
    16    6   34 1
    17    7    8 ar
    18    7   20 1
    19    8    9 ar
    20    8   10 1
    21    9   35 1
    22   10   16 1
    23   10   11 1
    24   11   12 1
    25   11   36 1
    26   11   37 1
    27   12   13 1
    28   12   38 1
    29   12   39 1
    30   13   14 1
    31   13   50 1
    32   14   15 1
    33   14   16 1
    34   14   17 1
    35   16   40 1
    36   16   41 1
    37   17   18 1
    38   18   19 1
    39   18   42 1
    40   18   43 1
    41   19   44 1
    42   19   45 1
    43   19   46 1
    44   20   21 1
    45   21   22 2
    46   21   23 2
    47   21   24 1
    48   24   25 1
    49   25   47 1
    50   25   48 1
    51   25   49 1
@<TRIPOS>MOLECULE
ZINC51006674
   44    45     0     0     0
SMALL
USER_CHARGES

@<TRIPOS>ATOM
      1 C1         -0.0187    1.5258    0.0104 C.3       1 <0>        -0.1593
      2 C2          0.0021   -0.0041    0.0020 C.3       1 <0>         0.1426
      3 C3          0.7182   -0.4975   -1.2568 C.3       1 <0>        -0.1582
      4 N1          0.7106   -0.4894    1.1889 N.pl3     1 <0>        -0.7323
      5 C4          0.0455   -0.6347    2.3654 C.2       1 <0>         0.5534
      6 O1         -1.2636   -0.3328    2.4400 O.3       1 <0>        -0.6404
      7 C5          0.7218   -1.0979    3.4982 C.2       1 <0>        -0.4607
      8 C6          2.1150   -1.4192    3.4189 C.1       1 <0>         0.3035
      9 N2          3.2203   -1.6740    3.3559 N.1       1 <0>        -0.5530
     10 C7          0.0325   -1.2485    4.7177 C.2       1 <0>         0.4166
     11 O2         -1.1496   -0.9759    4.7850 O.2       1 <0>        -0.5049
     12 C8          0.7613   -1.7477    5.9386 C.3       1 <0>        -0.1582
     13 C9         -0.2098   -1.8189    7.1187 C.3       1 <0>        -0.0997
     14 C10         0.5302   -2.3257    8.3583 C.3       1 <0>        -0.0430
     15 C11        -0.4263   -2.3958    9.5207 C.2       1 <0>         0.3146
     16 N3         -1.1497   -3.4276    9.8499 N.2       1 <0>        -0.5423
     17 C12        -1.8886   -3.1440   10.9376 C.2       1 <0>         0.2941
     18 N4         -1.6330   -1.9133   11.3080 N.2       1 <0>        -0.3426
     19 O3         -0.6715   -1.4095   10.3929 O.3       1 <0>        -0.0993
     20 C13        -2.8353   -4.0703   11.6065 C.ar      1 <0>        -0.0433
     21 C14        -3.0138   -5.3621   11.1150 C.ar      1 <0>        -0.0345
     22 C15        -3.8946   -6.2202   11.7402 C.ar      1 <0>        -0.1585
     23 C16        -4.6012   -5.7994   12.8554 C.ar      1 <0>         0.1222
     24 C17        -4.4270   -4.5157   13.3472 C.ar      1 <0>        -0.1587
     25 C18        -3.5440   -3.6530   12.7315 C.ar      1 <0>        -0.0483
     26 F1         -5.4628   -6.6430   13.4647 F         1 <0>        -0.1344
     27 H1          1.0039    1.9031    0.0027 H         1 <0>         0.0471
     28 H2         -0.5459    1.8868   -0.8726 H         1 <0>         0.0529
     29 H3         -0.5289    1.8773    0.9072 H         1 <0>         0.0639
     30 H4         -1.0205   -0.3814    0.0098 H         1 <0>         0.0842
     31 H5          1.7408   -0.1202   -1.2645 H         1 <0>         0.0535
     32 H6          0.7330   -1.5874   -1.2628 H         1 <0>         0.0570
     33 H7          0.1910   -0.1364   -2.1398 H         1 <0>         0.0637
     34 H8          1.6544   -0.7070    1.1351 H         1 <0>         0.3873
     35 H9          1.1652   -2.7405    5.7400 H         1 <0>         0.0794
     36 H10         1.5765   -1.0654    6.1794 H         1 <0>         0.0787
     37 H11        -0.6136   -0.8261    7.3173 H         1 <0>         0.0747
     38 H12        -1.0249   -2.5012    6.8779 H         1 <0>         0.0779
     39 H13         0.9341   -3.3185    8.1597 H         1 <0>         0.1144
     40 H14         1.3454   -1.6433    8.5991 H         1 <0>         0.1049
     41 H15        -2.4637   -5.6907   10.2456 H         1 <0>         0.1518
     42 H16        -4.0339   -7.2213   11.3597 H         1 <0>         0.1460
     43 H17        -4.9800   -4.1916   14.2164 H         1 <0>         0.1445
     44 H18        -3.4052   -2.6542   13.1183 H         1 <0>         0.1428
@<TRIPOS>BOND
     1    1    2 1
     2    1   27 1
     3    1   28 1
     4    1   29 1
     5    2    3 1
     6    2    4 1
     7    2   30 1
     8    3   31 1
     9    3   32 1
    10    3   33 1
    11    4    5 1
    12    4   34 1
    13    5    6 1
    14    5    7 2
    15    7    8 1
    16    7   10 1
    17    8    9 3
    18   10   11 2
    19   10   12 1
    20   12   13 1
    21   12   35 1
    22   12   36 1
    23   13   14 1
    24   13   37 1
    25   13   38 1
    26   14   15 1
    27   14   39 1
    28   14   40 1
    29   15   19 1
    30   15   16 2
    31   16   17 1
    32   17   18 2
    33   17   20 1
    34   18   19 1
    35   20   25 ar
    36   20   21 ar
    37   21   22 ar
    38   21   41 1
    39   22   23 ar
    40   22   42 1
    41   23   24 ar
    42   23   26 1
    43   24   25 ar
    44   24   43 1
    45   25   44 1
@<TRIPOS>MOLECULE
ZINC09120981
   51    54     0     0     0
SMALL
USER_CHARGES
N-[(3-benzo[1,3]dioxol-5-yl-2-oxo-oxazolidin-5-yl)methyl]-2-(4-chlorophenoxy)-2-methyl-propanamide
@<TRIPOS>ATOM
      1 C1         -0.4829    4.0483    1.1681 C.3       1 <0>        -0.1977
      2 C2         -1.2413    3.4750   -0.0306 C.3       1 <0>         0.0995
      3 C3         -0.4976    3.8270   -1.3205 C.3       1 <0>        -0.1383
      4 C4         -2.6287    4.0619   -0.0746 C.2       1 <0>         0.4924
      5 O1         -3.5971    3.3351   -0.0042 O.2       1 <0>        -0.5080
      6 N1         -2.7933    5.3944   -0.1921 N.am      1 <0>        -0.7232
      7 C5         -4.1420    5.9649   -0.2348 C.3       1 <0>         0.1112
      8 C6         -4.0483    7.4859   -0.3706 C.3       1 <0>         0.0571
      9 H1         -3.5097    7.7550   -1.2793 H         1 <0>         0.1341
     10 C7         -5.4545    8.1160   -0.3695 C.3       1 <0>         0.0687
     11 N2         -5.4461    8.9896    0.8139 N.am      1 <0>        -0.5654
     12 C8         -4.2505    8.8980    1.4121 C.2       1 <0>         0.6452
     13 O2         -3.9634    9.5156    2.4184 O.2       1 <0>        -0.4912
     14 O3         -3.3985    8.0640    0.7984 O.3       1 <0>        -0.3109
     15 C9         -6.5144    9.7872    1.2457 C.ar      1 <0>         0.1914
     16 C10        -7.7053    9.7981    0.5321 C.ar      1 <0>        -0.1434
     17 C11        -8.7613   10.5801    0.9594 C.ar      1 <0>        -0.0690
     18 C12        -8.6316   11.3631    2.0951 C.ar      1 <0>         0.0118
     19 C13        -7.4361   11.3586    2.8098 C.ar      1 <0>         0.0677
     20 C14        -6.3800   10.5706    2.3834 C.ar      1 <0>        -0.1374
     21 O4         -7.5613   12.2032    3.8749 O.3       1 <0>        -0.3033
     22 C15        -8.6982   13.0343    3.5754 C.3       1 <0>         0.2128
     23 O5         -9.5060   12.2112    2.7133 O.3       1 <0>        -0.3066
     24 O6         -1.3289    2.0544    0.0962 O.3       1 <0>        -0.2816
     25 C16        -1.9587    1.5710    1.1995 C.ar      1 <0>         0.1435
     26 C17        -2.5739    2.4428    2.0859 C.ar      1 <0>        -0.1729
     27 C18        -3.2087    1.9501    3.2096 C.ar      1 <0>        -0.0758
     28 C19        -3.2314    0.5878    3.4510 C.ar      1 <0>        -0.0692
     29 C20        -2.6180   -0.2834    2.5682 C.ar      1 <0>        -0.0737
     30 C21        -1.9823    0.2056    1.4434 C.ar      1 <0>        -0.1377
     31 Cl1        -4.0302   -0.0290    4.8634 Cl        1 <0>        -0.0717
     32 H2          0.5730    3.7902    1.0872 H         1 <0>         0.0865
     33 H3         -0.5917    5.1328    1.1821 H         1 <0>         0.0807
     34 H4         -0.8895    3.6304    2.0891 H         1 <0>         0.0855
     35 H5         -0.9904    3.3479   -2.1664 H         1 <0>         0.0768
     36 H6         -0.5046    4.9080   -1.4605 H         1 <0>         0.0836
     37 H7          0.5322    3.4761   -1.2534 H         1 <0>         0.0850
     38 H8         -2.0188    5.9757   -0.2483 H         1 <0>         0.4076
     39 H9         -4.6824    5.5564   -1.0888 H         1 <0>         0.1021
     40 H10        -4.6719    5.7141    0.6841 H         1 <0>         0.0841
     41 H11        -5.6128    8.7006   -1.2758 H         1 <0>         0.1133
     42 H12        -6.2192    7.3455   -0.2713 H         1 <0>         0.1103
     43 H13        -7.8077    9.1917   -0.3557 H         1 <0>         0.1432
     44 H14        -9.6882   10.5839    0.4051 H         1 <0>         0.1450
     45 H15        -5.4521   10.5659    2.9360 H         1 <0>         0.1693
     46 H16        -8.3845   13.9399    3.0563 H         1 <0>         0.0871
     47 H17        -9.2427   13.2850    4.4858 H         1 <0>         0.1350
     48 H18        -2.5563    3.5062    1.8979 H         1 <0>         0.1326
     49 H19        -3.6880    2.6285    3.8998 H         1 <0>         0.1327
     50 H20        -2.6365   -1.3463    2.7585 H         1 <0>         0.1404
     51 H21        -1.5042   -0.4748    0.7542 H         1 <0>         0.1404
@<TRIPOS>BOND
     1    1    2 1
     2    1   32 1
     3    1   33 1
     4    1   34 1
     5    2    3 1
     6    2    4 1
     7    2   24 1
     8    3   35 1
     9    3   36 1
    10    3   37 1
    11    4    5 2
    12    4    6 am
    13    6    7 1
    14    6   38 1
    15    7    8 1
    16    7   39 1
    17    7   40 1
    18    8    9 1
    19    8   14 1
    20    8   10 1
    21   10   11 1
    22   10   41 1
    23   10   42 1
    24   11   12 am
    25   11   15 1
    26   12   13 2
    27   12   14 1
    28   15   20 ar
    29   15   16 ar
    30   16   17 ar
    31   16   43 1
    32   17   18 ar
    33   17   44 1
    34   18   23 1
    35   18   19 ar
    36   19   20 ar
    37   19   21 1
    38   20   45 1
    39   21   22 1
    40   22   23 1
    41   22   46 1
    42   22   47 1
    43   24   25 1
    44   25   30 ar
    45   25   26 ar
    46   26   27 ar
    47   26   48 1
    48   27   28 ar
    49   27   49 1
    50   28   29 ar
    51   28   31 1
    52   29   30 ar
    53   29   50 1
    54   30   51 1
@<TRIPOS>MOLECULE
ZINC15790711
   55    57     0     0     0
SMALL
USER_CHARGES
1-(2,4-dimethylphenyl)sulfonyl-N-(2-methyl-3-nitro-phenyl)piperidine-4-carboxamide
@<TRIPOS>ATOM
      1 C1          4.2590   -4.3822    8.0522 C.3       1 <0>        -0.1264
      2 C2          4.9577   -3.4904    7.0585 C.ar      1 <0>        -0.0225
      3 C3          5.5435   -4.0368    5.9316 C.ar      1 <0>        -0.1492
      4 C4          6.1847   -3.2189    5.0205 C.ar      1 <0>        -0.0140
      5 C5          6.2405   -1.8543    5.2360 C.ar      1 <0>        -0.6895
      6 C6          5.6595   -1.3087    6.3652 C.ar      1 <0>         0.0294
      7 C7          5.0135   -2.1263    7.2740 C.ar      1 <0>        -0.1457
      8 C8          5.7256    0.1779    6.6033 C.3       1 <0>        -0.1931
      9 S1          7.0584   -0.8117    4.0748 S.o2      1 <0>         2.6932
     10 O1          7.5692   -1.6606    3.0561 O.2       1 <0>        -0.9543
     11 O2          7.8901    0.0606    4.8276 O.2       1 <0>        -0.9504
     12 N1          5.8995    0.1347    3.3652 N.pl3     1 <0>        -0.9968
     13 C9          5.5965    1.4710    3.8953 C.3       1 <0>         0.1080
     14 C10         4.0914    1.5648    4.1652 C.3       1 <0>        -0.1239
     15 C11         3.3252    1.2060    2.8900 C.3       1 <0>        -0.1017
     16 C12         3.6542   -0.2321    2.4828 C.3       1 <0>        -0.1318
     17 C13         5.1543   -0.3463    2.1938 C.3       1 <0>         0.1240
     18 C14         1.8447    1.3301    3.1421 C.2       1 <0>         0.5218
     19 O3          1.4420    1.6719    4.2339 O.2       1 <0>        -0.5104
     20 N2          0.9680    1.0614    2.1543 N.am      1 <0>        -0.6668
     21 C15        -0.4022    1.2528    2.3637 C.ar      1 <0>         0.1453
     22 C16        -0.9302    1.1593    3.6449 C.ar      1 <0>        -0.0780
     23 C17        -2.2828    1.3492    3.8483 C.ar      1 <0>        -0.1028
     24 C18        -3.1115    1.6318    2.7778 C.ar      1 <0>        -0.0679
     25 C19        -2.5881    1.7317    1.5020 C.ar      1 <0>        -0.0285
     26 C20        -1.2369    1.5372    1.2911 C.ar      1 <0>        -0.0492
     27 C21        -0.6682    1.6395   -0.1008 C.3       1 <0>        -0.1328
     28 N3         -3.4775    2.0413    0.3601 N.pl3     1 <0>         0.0313
     29 O4         -4.6411    2.3418    0.5584 O.2       1 <0>        -0.1603
     30 O5         -3.0458    1.9956   -0.7779 O.3       1 <0>        -0.1559
     31 H1          4.9721   -4.7143    8.8067 H         1 <0>         0.0807
     32 H2          3.4526   -3.8285    8.5331 H         1 <0>         0.0728
     33 H3          3.8468   -5.2490    7.5355 H         1 <0>         0.0734
     34 H4          5.5002   -5.1027    5.7635 H         1 <0>         0.1326
     35 H5          6.6426   -3.6457    4.1404 H         1 <0>         0.1429
     36 H6          4.5562   -1.6995    8.1544 H         1 <0>         0.1316
     37 H7          4.8524    0.6561    6.1595 H         1 <0>         0.0950
     38 H8          5.7416    0.3738    7.6754 H         1 <0>         0.0867
     39 H9          6.6307    0.5790    6.1471 H         1 <0>         0.1086
     40 H10         5.8847    2.2276    3.1656 H         1 <0>         0.0830
     41 H11         6.1448    1.6286    4.8241 H         1 <0>         0.1057
     42 H12         3.8387    2.5811    4.4677 H         1 <0>         0.0908
     43 H13         3.8204    0.8701    4.9602 H         1 <0>         0.0842
     44 H14         3.6154    1.8855    2.0886 H         1 <0>         0.1111
     45 H15         3.3873   -0.9099    3.2936 H         1 <0>         0.0788
     46 H16         3.0903   -0.4949    1.5877 H         1 <0>         0.0827
     47 H17         5.4065    0.2621    1.3253 H         1 <0>         0.0843
     48 H18         5.4108   -1.3878    1.9999 H         1 <0>         0.0971
     49 H19         1.2869    0.7353    1.2982 H         1 <0>         0.4168
     50 H20        -0.2836    0.9379    4.4812 H         1 <0>         0.1680
     51 H21        -2.6939    1.2766    4.8443 H         1 <0>         0.1520
     52 H22        -4.1692    1.7792    2.9393 H         1 <0>         0.1551
     53 H23        -0.8137    0.6939   -0.6231 H         1 <0>         0.0918
     54 H24         0.3972    1.8623   -0.0425 H         1 <0>         0.0685
     55 H25        -1.1769    2.4363   -0.6434 H         1 <0>         0.1040
@<TRIPOS>BOND
     1    1    2 1
     2    1   31 1
     3    1   32 1
     4    1   33 1
     5    2    7 ar
     6    2    3 ar
     7    3    4 ar
     8    3   34 1
     9    4    5 ar
    10    4   35 1
    11    5    6 ar
    12    5    9 1
    13    6    7 ar
    14    6    8 1
    15    7   36 1
    16    8   37 1
    17    8   38 1
    18    8   39 1
    19    9   10 2
    20    9   11 2
    21    9   12 1
    22   12   17 1
    23   12   13 1
    24   13   14 1
    25   13   40 1
    26   13   41 1
    27   14   15 1
    28   14   42 1
    29   14   43 1
    30   15   16 1
    31   15   18 1
    32   15   44 1
    33   16   17 1
    34   16   45 1
    35   16   46 1
    36   17   47 1
    37   17   48 1
    38   18   19 2
    39   18   20 am
    40   20   21 1
    41   20   49 1
    42   21   26 ar
    43   21   22 ar
    44   22   23 ar
    45   22   50 1
    46   23   24 ar
    47   23   51 1
    48   24   25 ar
    49   24   52 1
    50   25   26 ar
    51   25   28 1
    52   26   27 1
    53   27   53 1
    54   27   54 1
    55   27   55 1
    56   28   29 2
    57   28   30 1
@<TRIPOS>MOLECULE
ZINC23157775
   51    54     0     0     0
SMALL
USER_CHARGES
ethyl 4-[(S)-(3-chlorophenyl)-(6-hydroxy-2-methyl-thiazolo[2,3-e][1,2,4]triazol-5-yl)methyl]piperazine-1-carboxylate
@<TRIPOS>ATOM
      1 C1          6.3134    4.6670   -8.1556 C.3       1 <0>        -0.1555
      2 C2          7.1333    5.1272   -6.9485 C.3       1 <0>         0.0802
      3 O1          6.3673    4.9142   -5.7336 O.3       1 <0>        -0.3700
      4 C3          6.9503    5.2695   -4.5732 C.2       1 <0>         0.6514
      5 O2          8.0687    5.7446   -4.5757 O.2       1 <0>        -0.5718
      6 N1          6.2936    5.0981   -3.4088 N.am      1 <0>        -0.5969
      7 C4          6.9121    5.4795   -2.1300 C.3       1 <0>         0.1321
      8 C5          6.8123    4.2912   -1.1676 C.3       1 <0>         0.0411
      9 N2          5.4123    3.8562   -1.0751 N.3       1 <0>        -0.5326
     10 C6          4.9174    3.3738   -2.3714 C.3       1 <0>         0.0396
     11 C7          4.9395    4.5245   -3.3832 C.3       1 <0>         0.1167
     12 C8          5.2466    2.8328   -0.0344 C.3       1 <0>         0.2426
     13 H1          5.8712    1.9681   -0.3030 H         1 <0>         0.0856
     14 C9          5.6806    3.3937    1.2953 C.ar      1 <0>        -0.0748
     15 C10         6.4985    2.6497    2.1255 C.ar      1 <0>        -0.1009
     16 C11         6.8970    3.1635    3.3452 C.ar      1 <0>        -0.1067
     17 C12         6.4779    4.4215    3.7358 C.ar      1 <0>        -0.1042
     18 C13         5.6596    5.1664    2.9056 C.ar      1 <0>        -0.0364
     19 C14         5.2656    4.6538    1.6821 C.ar      1 <0>        -0.0782
     20 Cl1         5.1325    6.7462    3.3956 Cl        1 <0>        -0.0647
     21 C15         3.7982    2.4236    0.0416 C.2       1 <0>        -0.2213
     22 C16         3.2696    1.1961    0.1085 C.2       1 <0>         0.3390
     23 N3          1.9078    1.0227    0.1719 N.pl3     1 <0>        -0.3940
     24 C17         1.1355    2.1438    0.1634 C.2       1 <0>         0.2374
     25 S1          2.3361    3.4497    0.0655 S.3       1 <0>         0.2240
     26 N4         -0.1242    1.8082    0.2281 N.2       1 <0>        -0.4892
     27 C18        -0.2240    0.4816    0.2803 C.2       1 <0>         0.2708
     28 N5          0.9721   -0.0416    0.2495 N.2       1 <0>        -0.3107
     29 C19        -1.5136   -0.2937    0.3617 C.3       1 <0>        -0.0659
     30 O3          4.0880    0.1094    0.1142 O.3       1 <0>        -0.4779
     31 H2          6.8937    4.8284   -9.0760 H         1 <0>         0.0842
     32 H3          5.3785    5.2445   -8.2055 H         1 <0>         0.0679
     33 H4          6.0785    3.5973   -8.0530 H         1 <0>         0.0667
     34 H5          8.0682    4.5497   -6.8986 H         1 <0>         0.0709
     35 H6          7.3682    6.1969   -7.0511 H         1 <0>         0.0722
     36 H7          7.9678    5.7399   -2.2965 H         1 <0>         0.1036
     37 H8          6.3821    6.3475   -1.7108 H         1 <0>         0.0840
     38 H9          7.4309    3.4626   -1.5428 H         1 <0>         0.0470
     39 H10         7.1698    4.5943   -0.1724 H         1 <0>         0.0990
     40 H11         5.5617    2.5571   -2.7290 H         1 <0>         0.0458
     41 H12         3.8875    3.0048   -2.2564 H         1 <0>         0.0915
     42 H13         4.2184    5.3000   -3.0854 H         1 <0>         0.0838
     43 H14         4.6814    4.1489   -4.3843 H         1 <0>         0.0986
     44 H15         6.8258    1.6666    1.8210 H         1 <0>         0.1289
     45 H16         7.5361    2.5820    3.9931 H         1 <0>         0.1340
     46 H17         6.7896    4.8230    4.6887 H         1 <0>         0.1343
     47 H18         4.6303    5.2366    1.0316 H         1 <0>         0.1406
     48 H19        -1.2926   -1.3708    0.3916 H         1 <0>         0.0908
     49 H20        -2.1318   -0.0706   -0.5203 H         1 <0>         0.0974
     50 H21        -2.0577   -0.0056    1.2733 H         1 <0>         0.0974
     51 H22         3.6589   -0.9020    0.1691 H         1 <0>         0.4528
@<TRIPOS>BOND
     1    1    2 1
     2    1   31 1
     3    1   32 1
     4    1   33 1
     5    2    3 1
     6    2   34 1
     7    2   35 1
     8    3    4 1
     9    4    5 2
    10    4    6 am
    11    6   11 1
    12    6    7 1
    13    7    8 1
    14    7   36 1
    15    7   37 1
    16    8    9 1
    17    8   38 1
    18    8   39 1
    19    9   10 1
    20    9   12 1
    21   10   11 1
    22   10   40 1
    23   10   41 1
    24   11   42 1
    25   11   43 1
    26   12   13 1
    27   12   14 1
    28   12   21 1
    29   14   19 ar
    30   14   15 ar
    31   15   16 ar
    32   15   44 1
    33   16   17 ar
    34   16   45 1
    35   17   18 ar
    36   17   46 1
    37   18   19 ar
    38   18   20 1
    39   19   47 1
    40   21   25 1
    41   21   22 2
    42   22   23 1
    43   22   30 1
    44   23   28 1
    45   23   24 1
    46   24   25 1
    47   24   26 2
    48   26   27 1
    49   27   28 2
    50   27   29 1
    51   29   48 1
    52   29   49 1
    53   29   50 1
    54   30   51 1
@<TRIPOS>MOLECULE
ZINC36433577
   61    64     0     0     0
SMALL
USER_CHARGES

@<TRIPOS>ATOM
      1 C1         -2.4095   -1.4887   -0.8896 C.3       1 <0>        -0.1483
      2 C2         -0.9558   -1.1382   -0.5656 C.3       1 <0>        -0.0839
      3 C3         -0.0353   -1.7541   -1.6212 C.3       1 <0>        -0.1193
      4 C4          1.4183   -1.4037   -1.2973 C.3       1 <0>        -0.1159
      5 C5          1.7814   -1.9579    0.0819 C.3       1 <0>        -0.1271
      6 C6          0.8609   -1.3420    1.1375 C.3       1 <0>         0.1680
      7 C7         -0.5928   -1.6924    0.8135 C.3       1 <0>        -0.1000
      8 C8         -0.7629   -3.2129    0.8131 C.3       1 <0>        -0.1475
      9 N1          1.2085   -1.8726    2.4580 N.am      1 <0>        -0.6095
     10 C9          2.2120   -2.9175    2.6926 C.3       1 <0>         0.1113
     11 C10         2.5458   -2.8376    4.1988 C.3       1 <0>        -0.0962
     12 C11         1.2521   -2.2178    4.7760 C.3       1 <0>        -0.1463
     13 C12         0.6534   -1.4611    3.6109 C.2       1 <0>         0.5143
     14 O1         -0.2046   -0.6088    3.7035 O.2       1 <0>        -0.5201
     15 C13         3.7299   -1.9377    4.4418 C.2       1 <0>         0.4724
     16 O2          4.2776   -1.3954    3.5113 O.2       1 <0>        -0.4913
     17 O3          4.1762   -1.7385    5.6920 O.3       1 <0>        -0.3188
     18 C14         5.3027   -0.8734    5.8487 C.3       1 <0>         0.0719
     19 C15         6.5913   -1.6943    5.7680 C.3       1 <0>        -0.1683
     20 C16         5.2269   -0.1876    7.1884 C.2       1 <0>         0.5163
     21 O4          4.3503   -0.4839    7.9727 O.2       1 <0>        -0.4882
     22 N2          6.1332    0.7548    7.5153 N.am      1 <0>        -0.6643
     23 C17         6.1290    1.3154    8.7992 C.ar      1 <0>         0.1568
     24 C18         6.4877    2.6448    8.9776 C.ar      1 <0>        -0.1315
     25 C19         6.4836    3.1992   10.2432 C.ar      1 <0>        -0.0785
     26 C20         6.1220    2.4305   11.3378 C.ar      1 <0>         0.0192
     27 C21         5.7616    1.0966   11.1620 C.ar      1 <0>         0.0554
     28 C22         5.7606    0.5434    9.8924 C.ar      1 <0>        -0.1043
     29 O5          5.4527    0.5639   12.3803 O.3       1 <0>        -0.3051
     30 C23         6.0198    1.4653   13.3493 C.3       1 <0>         0.2129
     31 O6          6.0386    2.7331   12.6672 O.3       1 <0>        -0.3071
     32 H1         -3.0653   -1.0499   -0.1376 H         1 <0>         0.0548
     33 H2         -2.6681   -1.0939   -1.8721 H         1 <0>         0.0550
     34 H3         -2.5307   -2.5719   -0.8899 H         1 <0>         0.0577
     35 H4         -0.8346   -0.0550   -0.5653 H         1 <0>         0.0705
     36 H5         -0.1565   -2.8373   -1.6215 H         1 <0>         0.0674
     37 H6         -0.2940   -1.3593   -2.6037 H         1 <0>         0.0643
     38 H7          2.0741   -1.8424   -2.0493 H         1 <0>         0.0688
     39 H8          1.5395   -0.3204   -1.2969 H         1 <0>         0.0644
     40 H9          1.6602   -3.0411    0.0816 H         1 <0>         0.0735
     41 H10         2.8170   -1.7082    0.3127 H         1 <0>         0.0711
     42 H11         0.9821   -0.2587    1.1378 H         1 <0>         0.0771
     43 H12        -1.2486   -1.2537    1.5655 H         1 <0>         0.0816
     44 H13        -0.1706   -3.6446    0.0062 H         1 <0>         0.0604
     45 H14        -0.4254   -3.6166    1.7676 H         1 <0>         0.0510
     46 H15        -1.8140   -3.4609    0.6650 H         1 <0>         0.0570
     47 H16         1.8008   -3.8971    2.4489 H         1 <0>         0.0903
     48 H17         3.1046   -2.7237    2.0977 H         1 <0>         0.1005
     49 H18         2.7210   -3.8306    4.6127 H         1 <0>         0.1414
     50 H19         0.5736   -2.9999    5.1170 H         1 <0>         0.1250
     51 H20         1.4875   -1.5337    5.5912 H         1 <0>         0.1138
     52 H21         5.2987   -0.1246    5.0565 H         1 <0>         0.1142
     53 H22         6.5953   -2.4430    6.5602 H         1 <0>         0.0775
     54 H23         6.6461   -2.1903    4.7990 H         1 <0>         0.0802
     55 H24         7.4505   -1.0343    5.8875 H         1 <0>         0.0838
     56 H25         6.7884    1.0450    6.8615 H         1 <0>         0.4168
     57 H26         6.7707    3.2460    8.1262 H         1 <0>         0.1439
     58 H27         6.7630    4.2335   10.3795 H         1 <0>         0.1430
     59 H28         5.4772   -0.4894    9.7534 H         1 <0>         0.1477
     60 H29         5.3905    1.5177   14.2379 H         1 <0>         0.1339
     61 H30         7.0315    1.1572   13.6130 H         1 <0>         0.0866
@<TRIPOS>BOND
     1    1    2 1
     2    1   32 1
     3    1   33 1
     4    1   34 1
     5    2    7 1
     6    2    3 1
     7    2   35 1
     8    3    4 1
     9    3   36 1
    10    3   37 1
    11    4    5 1
    12    4   38 1
    13    4   39 1
    14    5    6 1
    15    5   40 1
    16    5   41 1
    17    6    7 1
    18    6    9 1
    19    6   42 1
    20    7    8 1
    21    7   43 1
    22    8   44 1
    23    8   45 1
    24    8   46 1
    25    9   13 am
    26    9   10 1
    27   10   11 1
    28   10   47 1
    29   10   48 1
    30   11   12 1
    31   11   15 1
    32   11   49 1
    33   12   13 1
    34   12   50 1
    35   12   51 1
    36   13   14 2
    37   15   16 2
    38   15   17 1
    39   17   18 1
    40   18   19 1
    41   18   20 1
    42   18   52 1
    43   19   53 1
    44   19   54 1
    45   19   55 1
    46   20   21 2
    47   20   22 am
    48   22   23 1
    49   22   56 1
    50   23   28 ar
    51   23   24 ar
    52   24   25 ar
    53   24   57 1
    54   25   26 ar
    55   25   58 1
    56   26   31 1
    57   26   27 ar
    58   27   28 ar
    59   27   29 1
    60   28   59 1
    61   29   30 1
    62   30   31 1
    63   30   60 1
    64   30   61 1
@<TRIPOS>MOLECULE
ZINC21342043
   40    42     0     0     0
SMALL
USER_CHARGES

@<TRIPOS>ATOM
      1 C1         -0.0169    1.3963    0.0097 C.ar      1 <0>        -0.0391
      2 C2          1.1680    2.0959    0.0022 C.ar      1 <0>        -0.1642
      3 C3          2.3806    1.4118   -0.0129 C.ar      1 <0>         0.2031
      4 C4          2.3979    0.0192   -0.0197 C.ar      1 <0>        -0.1366
      5 C5          1.2269   -0.6831   -0.0123 C.ar      1 <0>        -0.0152
      6 C6          0.0021   -0.0041    0.0020 C.ar      1 <0>        -0.1939
      7 C7         -1.2581   -0.7580    0.0103 C.2       1 <0>         0.4036
      8 O1         -1.2393   -1.9708    0.0036 O.2       1 <0>        -0.4279
      9 C8         -2.5746   -0.0248    0.0271 C.3       1 <0>         0.0196
     10 O2         -3.6462   -0.9702    0.0325 O.3       1 <0>        -0.3260
     11 C9         -4.8989   -0.4746    0.0474 C.2       1 <0>         0.5147
     12 O3         -5.0767    0.7270    0.0556 O.2       1 <0>        -0.4828
     13 C10        -6.0559   -1.3923    0.0538 C.ar      1 <0>        -0.1117
     14 C11        -5.8548   -2.7745    0.0503 C.ar      1 <0>        -0.0049
     15 C12        -6.9392   -3.6259    0.0568 C.ar      1 <0>        -0.1001
     16 C13        -8.2259   -3.1133    0.0663 C.ar      1 <0>        -0.0163
     17 C14        -8.4319   -1.7441    0.0699 C.ar      1 <0>        -0.0419
     18 C15        -7.3556   -0.8818    0.0693 C.ar      1 <0>         0.0149
     19 N1         -9.8103   -1.2047    0.0796 N.pl3     1 <0>         0.0276
     20 O4         -9.9917   -0.0094    0.0827 O.2       1 <0>        -0.1503
     21 O5        -10.7547   -1.9594    0.0844 O.3       1 <0>        -0.1207
     22 Br1        -9.7075   -4.2884    0.0739 Br        1 <0>         0.0374
     23 C16         3.7153   -0.7130   -0.0348 C.3       1 <0>        -0.0790
     24 C17         4.7347    0.0882   -0.8453 C.3       1 <0>        -0.1402
     25 C18         4.7237    1.5264   -0.4023 C.2       1 <0>         0.5210
     26 O6          5.7594    2.1573   -0.3900 O.2       1 <0>        -0.5147
     27 N2          3.5791    2.1210   -0.0202 N.am      1 <0>        -0.6633
     28 H1         -0.9583    1.9253    0.0261 H         1 <0>         0.1401
     29 H2          1.1573    3.1758    0.0076 H         1 <0>         0.1402
     30 H3          1.2452   -1.7629   -0.0179 H         1 <0>         0.1442
     31 H4         -2.6333    0.5961    0.9211 H         1 <0>         0.1108
     32 H5         -2.6508    0.6056   -0.8588 H         1 <0>         0.1108
     33 H6         -4.8520   -3.1754    0.0421 H         1 <0>         0.1714
     34 H7         -6.7850   -4.6949    0.0541 H         1 <0>         0.1690
     35 H8         -7.5175    0.1860    0.0766 H         1 <0>         0.1771
     36 H9          4.0763   -0.8323    0.9867 H         1 <0>         0.0880
     37 H10         3.5803   -1.6945   -0.4893 H         1 <0>         0.0977
     38 H11         5.7292   -0.3305   -0.6916 H         1 <0>         0.1146
     39 H12         4.4795    0.0333   -1.9036 H         1 <0>         0.1076
     40 H13         3.5886    3.0519    0.2523 H         1 <0>         0.4151
@<TRIPOS>BOND
     1    1    6 ar
     2    1    2 ar
     3    1   28 1
     4    2    3 ar
     5    2   29 1
     6    3   27 1
     7    3    4 ar
     8    4    5 ar
     9    4   23 1
    10    5    6 ar
    11    5   30 1
    12    6    7 1
    13    7    8 2
    14    7    9 1
    15    9   10 1
    16    9   31 1
    17    9   32 1
    18   10   11 1
    19   11   12 2
    20   11   13 1
    21   13   18 ar
    22   13   14 ar
    23   14   15 ar
    24   14   33 1
    25   15   16 ar
    26   15   34 1
    27   16   17 ar
    28   16   22 1
    29   17   18 ar
    30   17   19 1
    31   18   35 1
    32   19   20 2
    33   19   21 1
    34   23   24 1
    35   23   36 1
    36   23   37 1
    37   24   25 1
    38   24   38 1
    39   24   39 1
    40   25   26 2
    41   25   27 am
    42   27   40 1
@<TRIPOS>MOLECULE
ZINC04089420
   58    61     0     0     0
SMALL
USER_CHARGES
2-(dimethyl-oxo-BLAHyl)oxy-N-isopropyl-acetamide
@<TRIPOS>ATOM
      1 C1         -6.7524    7.2473   -2.0357 C.3       1 <0>        -0.1660
      2 C2         -5.6734    8.0395   -1.2947 C.3       1 <0>         0.1384
      3 C3         -6.1325    9.4889   -1.1229 C.3       1 <0>        -0.1625
      4 N1         -5.4454    7.4401    0.0225 N.am      1 <0>        -0.7229
      5 C4         -4.5925    6.4048    0.1532 C.2       1 <0>         0.5175
      6 O1         -4.0137    5.9694   -0.8195 O.2       1 <0>        -0.5103
      7 C5         -4.3580    5.7882    1.5082 C.3       1 <0>         0.0234
      8 O2         -3.4204    4.7165    1.3880 O.3       1 <0>        -0.2626
      9 C6         -3.0970    4.0504    2.5252 C.ar      1 <0>         0.2205
     10 C7         -3.6634    4.4137    3.7289 C.ar      1 <0>        -0.2656
     11 C8         -3.3360    3.7339    4.9033 C.ar      1 <0>         0.2346
     12 C9         -2.4377    2.6813    4.8723 C.ar      1 <0>        -0.2128
     13 C10        -1.8569    2.3009    3.6693 C.ar      1 <0>         0.2177
     14 C11        -2.1813    2.9839    2.4863 C.ar      1 <0>        -0.2039
     15 C12        -1.5835    2.5929    1.2548 C.2       1 <0>         0.0554
     16 C13        -0.7061    1.5658    1.2557 C.2       1 <0>        -0.2369
     17 C14        -0.4114    0.9027    2.4725 C.2       1 <0>         0.5107
     18 O3          0.3753   -0.0273    2.4676 O.2       1 <0>        -0.4620
     19 O4         -0.9791    1.2740    3.6298 O.3       1 <0>        -0.2620
     20 C15        -0.0127    1.0858    0.0080 C.3       1 <0>        -0.0553
     21 C16        -0.7399    1.5861   -1.2384 C.3       1 <0>        -0.1214
     22 C17        -0.9448    3.0998   -1.1018 C.3       1 <0>        -0.1191
     23 C18        -1.9637    3.3465    0.0094 C.3       1 <0>        -0.0864
     24 C19        -2.0703    1.9235    6.1232 C.3       1 <0>        -0.0696
     25 C20        -2.4539    2.7451    7.3563 C.3       1 <0>        -0.1481
     26 C21        -3.8930    3.2438    7.1726 C.3       1 <0>         0.1098
     27 O5         -3.9199    4.1390    6.0605 O.3       1 <0>        -0.2951
     28 C22        -4.8193    2.0566    6.9012 C.3       1 <0>        -0.1784
     29 C23        -4.3497    3.9767    8.4355 C.3       1 <0>        -0.1397
     30 H1         -7.6784    7.2694   -1.4612 H         1 <0>         0.0577
     31 H2         -6.9220    7.6933   -3.0157 H         1 <0>         0.0687
     32 H3         -6.4253    6.2147   -2.1581 H         1 <0>         0.0615
     33 H4         -4.7474    8.0174   -1.8691 H         1 <0>         0.0912
     34 H5         -5.3638   10.0533   -0.5949 H         1 <0>         0.0630
     35 H6         -6.3021    9.9349   -2.1029 H         1 <0>         0.0760
     36 H7         -7.0585    9.5111   -0.5484 H         1 <0>         0.0624
     37 H8         -5.9084    7.7883    0.8005 H         1 <0>         0.4020
     38 H9         -5.2997    5.4047    1.9008 H         1 <0>         0.1009
     39 H10        -3.9618    6.5431    2.1873 H         1 <0>         0.1010
     40 H11        -4.3673    5.2321    3.7633 H         1 <0>         0.1479
     41 H12         0.0021   -0.0041    0.0020 H         1 <0>         0.0809
     42 H13         1.0114    1.4588    0.0002 H         1 <0>         0.0774
     43 H14        -0.1398    1.3750   -2.1235 H         1 <0>         0.0732
     44 H15        -1.7071    1.0906   -1.3231 H         1 <0>         0.0665
     45 H16         0.0011    3.5771   -0.8458 H         1 <0>         0.0658
     46 H17        -1.3191    3.5064   -2.0414 H         1 <0>         0.0750
     47 H18        -2.0012    4.4128    0.2322 H         1 <0>         0.1111
     48 H19        -2.9468    3.0146   -0.3245 H         1 <0>         0.0930
     49 H20        -2.6031    0.9728    6.1408 H         1 <0>         0.0830
     50 H21        -0.9964    1.7367    6.1317 H         1 <0>         0.0880
     51 H22        -2.3922    2.1208    8.2476 H         1 <0>         0.0911
     52 H23        -1.7794    3.5955    7.4557 H         1 <0>         0.0805
     53 H24        -4.7809    1.3659    7.7435 H         1 <0>         0.0781
     54 H25        -5.8405    2.4149    6.7713 H         1 <0>         0.0688
     55 H26        -4.4963    1.5434    5.9955 H         1 <0>         0.0669
     56 H27        -3.6933    4.8272    8.6195 H         1 <0>         0.0689
     57 H28        -5.3723    4.3295    8.3012 H         1 <0>         0.0697
     58 H29        -4.3090    3.2957    9.2856 H         1 <0>         0.0824
@<TRIPOS>BOND
     1    1    2 1
     2    1   30 1
     3    1   31 1
     4    1   32 1
     5    2    3 1
     6    2    4 1
     7    2   33 1
     8    3   34 1
     9    3   35 1
    10    3   36 1
    11    4    5 am
    12    4   37 1
    13    5    6 2
    14    5    7 1
    15    7    8 1
    16    7   38 1
    17    7   39 1
    18    8    9 1
    19    9   14 ar
    20    9   10 ar
    21   10   11 ar
    22   10   40 1
    23   11   27 1
    24   11   12 ar
    25   12   13 ar
    26   12   24 1
    27   13   19 1
    28   13   14 ar
    29   14   15 1
    30   15   23 1
    31   15   16 2
    32   16   17 1
    33   16   20 1
    34   17   18 2
    35   17   19 1
    36   20   21 1
    37   20   41 1
    38   20   42 1
    39   21   22 1
    40   21   43 1
    41   21   44 1
    42   22   23 1
    43   22   45 1
    44   22   46 1
    45   23   47 1
    46   23   48 1
    47   24   25 1
    48   24   49 1
    49   24   50 1
    50   25   26 1
    51   25   51 1
    52   25   52 1
    53   26   27 1
    54   26   28 1
    55   26   29 1
    56   28   53 1
    57   28   54 1
    58   28   55 1
    59   29   56 1
    60   29   57 1
    61   29   58 1
@<TRIPOS>MOLECULE
ZINC13638596
   51    55     0     0     0
SMALL
USER_CHARGES
6-[2-(5-chloro-1H-indol-3-yl)ethyl]-2-(1-piperidyl)pyrido[4,3-d]pyrimidin-5-one
@<TRIPOS>ATOM
      1 C1          6.2942   -5.9204   -1.2769 C.ar      1 <0>        -0.0907
      2 C2          7.2193   -4.9070   -1.3988 C.ar      1 <0>        -0.1135
      3 C3          6.7949   -3.5844   -1.4661 C.ar      1 <0>         0.0991
      4 C4          5.4196   -3.2952   -1.4028 C.ar      1 <0>        -0.0905
      5 C5          4.4936   -4.3334   -1.2845 C.ar      1 <0>        -0.0629
      6 C6          4.9357   -5.6364   -1.2200 C.ar      1 <0>        -0.0576
      7 Cl1         3.7889   -6.9305   -1.0662 Cl        1 <0>        -0.0706
      8 C7          5.3071   -1.8380   -1.5024 C.2       1 <0>        -0.1721
      9 C8          6.5549   -1.3541   -1.6057 C.2       1 <0>         0.0733
     10 N1          7.4573   -2.3824   -1.5858 N.pl3     1 <0>        -0.5912
     11 H1          8.4200   -2.2803   -1.6467 H         1 <0>         0.4203
     12 C9          4.0325   -1.0341   -1.4855 C.3       1 <0>        -0.0564
     13 C10         3.6154   -0.7698   -0.0374 C.3       1 <0>         0.0988
     14 N2          2.3764    0.0117   -0.0209 N.am      1 <0>        -0.5229
     15 C11         1.1836   -0.6471   -0.0127 C.2       1 <0>         0.1564
     16 C12         0.0021   -0.0041    0.0020 C.2       1 <0>        -0.2069
     17 C13        -0.0177    1.4558    0.0100 C.ar      1 <0>         0.2796
     18 C14         1.2225    2.1436    0.0019 C.ar      1 <0>        -0.3039
     19 C15         2.4561    1.3581   -0.0141 C.2       1 <0>         0.5654
     20 O1          3.5406    1.9122   -0.0211 O.2       1 <0>        -0.5166
     21 C16         1.2139    3.5387    0.0094 C.ar      1 <0>         0.2588
     22 N3          0.0468    4.1591    0.0239 N.ar      1 <0>        -0.5670
     23 C17        -1.0983    3.4842    0.0312 C.ar      1 <0>         0.5260
     24 N4         -1.1450    2.1603    0.0191 N.ar      1 <0>        -0.5323
     25 N5         -2.2845    4.1900    0.0464 N.pl3     1 <0>        -0.4574
     26 C18        -3.1417    3.8027   -1.0813 C.3       1 <0>         0.0665
     27 C19        -4.5008    4.4942   -0.9517 C.3       1 <0>        -0.1188
     28 C20        -4.2967    6.0117   -0.9391 C.3       1 <0>        -0.1263
     29 C21        -3.3618    6.3835    0.2152 C.3       1 <0>        -0.1217
     30 C22        -2.0358    5.6372    0.0517 C.3       1 <0>         0.0678
     31 H2          6.6286   -6.9460   -1.2246 H         1 <0>         0.1371
     32 H3          8.2731   -5.1394   -1.4425 H         1 <0>         0.1306
     33 H4          3.4367   -4.1158   -1.2394 H         1 <0>         0.1322
     34 H5          6.8090   -0.3079   -1.6918 H         1 <0>         0.1754
     35 H6          3.2454   -1.5903   -1.9946 H         1 <0>         0.0773
     36 H7          4.1949   -0.0848   -1.9959 H         1 <0>         0.0796
     37 H8          4.4026   -0.2136    0.4717 H         1 <0>         0.1012
     38 H9          3.4530   -1.7191    0.4730 H         1 <0>         0.0945
     39 H10         1.1869   -1.7270   -0.0185 H         1 <0>         0.1699
     40 H11        -0.9226   -0.5621    0.0075 H         1 <0>         0.1612
     41 H12         2.1379    4.0979    0.0032 H         1 <0>         0.1827
     42 H13        -2.6692    4.1030   -2.0165 H         1 <0>         0.0465
     43 H14        -3.2823    2.7218   -1.0762 H         1 <0>         0.0969
     44 H15        -4.9800    4.1837   -0.0232 H         1 <0>         0.0765
     45 H16        -5.1319    4.2189   -1.7967 H         1 <0>         0.0769
     46 H17        -5.2580    6.5074   -0.8033 H         1 <0>         0.0701
     47 H18        -3.8531    6.3275   -1.8833 H         1 <0>         0.0623
     48 H19        -3.8231    6.1027    1.1620 H         1 <0>         0.0733
     49 H20        -3.1786    7.4579    0.2034 H         1 <0>         0.0766
     50 H21        -1.3730    5.8887    0.8798 H         1 <0>         0.0907
     51 H22        -1.5686    5.9289   -0.8889 H         1 <0>         0.0557
@<TRIPOS>BOND
     1    1    6 ar
     2    1    2 ar
     3    1   31 1
     4    2    3 ar
     5    2   32 1
     6    3   10 1
     7    3    4 ar
     8    4    5 ar
     9    4    8 1
    10    5    6 ar
    11    5   33 1
    12    6    7 1
    13    8    9 2
    14    8   12 1
    15    9   10 1
    16    9   34 1
    17   10   11 1
    18   12   13 1
    19   12   35 1
    20   12   36 1
    21   13   14 1
    22   13   37 1
    23   13   38 1
    24   14   19 am
    25   14   15 1
    26   15   16 2
    27   15   39 1
    28   16   17 1
    29   16   40 1
    30   17   24 ar
    31   17   18 ar
    32   18   19 1
    33   18   21 ar
    34   19   20 2
    35   21   22 ar
    36   21   41 1
    37   22   23 ar
    38   23   24 ar
    39   23   25 1
    40   25   30 1
    41   25   26 1
    42   26   27 1
    43   26   42 1
    44   26   43 1
    45   27   28 1
    46   27   44 1
    47   27   45 1
    48   28   29 1
    49   28   46 1
    50   28   47 1
    51   29   30 1
    52   29   48 1
    53   29   49 1
    54   30   50 1
    55   30   51 1
@<TRIPOS>MOLECULE
ZINC21863224
   61    65     0     0     0
SMALL
USER_CHARGES
(3S)-N-cyclohexyl-2-cyclopentyl-6-(2-furyl)-3-methyl-1-oxo-4H-pyrrolo[1,2-d]pyrazine-3-carboxamide
@<TRIPOS>ATOM
      1 C1         -3.3674    1.7764   -0.7795 C.3       1 <0>        -0.1500
      2 C2         -2.3653    0.8416   -0.0993 C.3       1 <0>         0.1494
      3 C3         -2.7733    0.6593    1.3623 C.3       1 <0>         0.1021
      4 N1         -2.0117   -0.4522    1.9394 N.pl3     1 <0>        -0.4250
      5 C4         -1.6176   -0.6679    3.2186 C.2       1 <0>         0.1417
      6 C5         -0.9385   -1.8758    3.2647 C.2       1 <0>        -0.1777
      7 C6         -0.9162   -2.4019    1.9721 C.2       1 <0>        -0.0820
      8 C7         -1.5722   -1.5175    1.1612 C.2       1 <0>        -0.0751
      9 C8         -1.8305   -1.5517   -0.2818 C.2       1 <0>         0.5877
     10 O1         -1.6105   -2.5458   -0.9493 O.2       1 <0>        -0.4906
     11 N2         -2.3271   -0.4188   -0.8319 N.am      1 <0>        -0.6101
     12 C9         -2.8415   -0.4602   -2.2030 C.3       1 <0>         0.1221
     13 C10        -3.9512   -1.5256   -2.3191 C.3       1 <0>        -0.1320
     14 C11        -3.7354   -2.1463   -3.7225 C.3       1 <0>        -0.1184
     15 C12        -2.1920   -2.1882   -3.8449 C.3       1 <0>        -0.1115
     16 C13        -1.7235   -0.8810   -3.1729 C.3       1 <0>        -0.1200
     17 C14        -1.8671    0.2244    4.3592 C.2       1 <0>         0.0292
     18 C15        -1.3951    0.0544    5.6275 C.2       1 <0>        -0.1634
     19 C16        -1.8740    1.1382    6.3862 C.2       1 <0>        -0.2088
     20 C17        -2.6135    1.9051    5.5588 C.2       1 <0>        -0.0263
     21 O2         -2.6072    1.3507    4.3362 O.3       1 <0>        -0.1783
     22 C18        -0.9987    1.4750   -0.1481 C.2       1 <0>         0.5085
     23 O3         -0.8915    2.6775   -0.2637 O.2       1 <0>        -0.5302
     24 N3          0.1043    0.7051   -0.0634 N.am      1 <0>        -0.7250
     25 C19         1.4328    1.3202   -0.1169 C.3       1 <0>         0.1481
     26 C20         1.8486    1.5098   -1.5771 C.3       1 <0>        -0.1261
     27 C21         3.2360    2.1522   -1.6330 C.3       1 <0>        -0.1170
     28 C22         4.2468    1.2450   -0.9286 C.3       1 <0>        -0.1230
     29 C23         3.8311    1.0555    0.5316 C.3       1 <0>        -0.1152
     30 C24         2.4436    0.4131    0.5875 C.3       1 <0>        -0.1246
     31 H1         -3.4053    2.7317   -0.2355 H         1 <0>         0.0930
     32 H2         -4.3644    1.3116   -0.7742 H         1 <0>         0.0812
     33 H3         -3.0530    1.9580   -1.8179 H         1 <0>         0.0863
     34 H4         -2.5597    1.5827    1.9205 H         1 <0>         0.1186
     35 H5         -3.8494    0.4380    1.4178 H         1 <0>         0.1081
     36 H6         -0.5048   -2.3290    4.1438 H         1 <0>         0.1556
     37 H7         -0.4647   -3.3348    1.6686 H         1 <0>         0.1592
     38 H8         -3.2094    0.5568   -2.4037 H         1 <0>         0.1074
     39 H9         -3.8321   -2.2681   -1.5162 H         1 <0>         0.0756
     40 H10        -4.9349   -1.0419   -2.2282 H         1 <0>         0.0656
     41 H11        -4.1912   -3.1469   -3.7549 H         1 <0>         0.0678
     42 H12        -4.2044   -1.5049   -4.4832 H         1 <0>         0.0660
     43 H13        -1.8072   -3.0793   -3.3273 H         1 <0>         0.0783
     44 H14        -1.9094   -2.2305   -4.9071 H         1 <0>         0.0621
     45 H15        -1.5694   -0.0890   -3.9206 H         1 <0>         0.0653
     46 H16        -0.7915   -1.0410   -2.6109 H         1 <0>         0.0708
     47 H17        -0.7724   -0.7543    5.9805 H         1 <0>         0.1568
     48 H18        -1.6880    1.3197    7.4344 H         1 <0>         0.1559
     49 H19        -3.1262    2.8148    5.8345 H         1 <0>         0.2083
     50 H20         0.0070   -0.3851    0.0459 H         1 <0>         0.4146
     51 H21         1.3613    2.2913    0.3949 H         1 <0>         0.0864
     52 H22         1.8767    0.5320   -2.0802 H         1 <0>         0.0637
     53 H23         1.1219    2.1620   -2.0836 H         1 <0>         0.0654
     54 H24         3.5349    2.2885   -2.6828 H         1 <0>         0.0658
     55 H25         3.2079    3.1300   -1.1299 H         1 <0>         0.0641
     56 H26         4.2748    0.2672   -1.4317 H         1 <0>         0.0635
     57 H27         5.2444    1.7068   -0.9689 H         1 <0>         0.0653
     58 H28         4.5579    0.4033    1.0380 H         1 <0>         0.0690
     59 H29         3.8030    2.0333    1.0347 H         1 <0>         0.0647
     60 H30         2.1447    0.2768    1.6373 H         1 <0>         0.0686
     61 H31         2.4717   -0.5647    0.0844 H         1 <0>         0.0685
@<TRIPOS>BOND
     1    1    2 1
     2    1   31 1
     3    1   32 1
     4    1   33 1
     5    2   11 1
     6    2    3 1
     7    2   22 1
     8    3    4 1
     9    3   34 1
    10    3   35 1
    11    4    8 1
    12    4    5 1
    13    5    6 2
    14    5   17 1
    15    6    7 1
    16    6   36 1
    17    7    8 2
    18    7   37 1
    19    8    9 1
    20    9   10 2
    21    9   11 am
    22   11   12 1
    23   12   16 1
    24   12   13 1
    25   12   38 1
    26   13   14 1
    27   13   39 1
    28   13   40 1
    29   14   15 1
    30   14   41 1
    31   14   42 1
    32   15   16 1
    33   15   43 1
    34   15   44 1
    35   16   45 1
    36   16   46 1
    37   17   21 1
    38   17   18 2
    39   18   19 1
    40   18   47 1
    41   19   20 2
    42   19   48 1
    43   20   21 1
    44   20   49 1
    45   22   23 2
    46   22   24 am
    47   24   25 1
    48   24   50 1
    49   25   30 1
    50   25   26 1
    51   25   51 1
    52   26   27 1
    53   26   52 1
    54   26   53 1
    55   27   28 1
    56   27   54 1
    57   27   55 1
    58   28   29 1
    59   28   56 1
    60   28   57 1
    61   29   30 1
    62   29   58 1
    63   29   59 1
    64   30   60 1
    65   30   61 1
@<TRIPOS>MOLECULE
ZINC46057877
   45    49     0     0     0
SMALL
USER_CHARGES

@<TRIPOS>ATOM
      1 C1         -0.0184    1.5028    0.0103 C.3       1 <0>        -0.0788
      2 C2          0.0021   -0.0041    0.0020 C.2       1 <0>         0.1392
      3 C3          0.0079   -0.8104   -1.1266 C.2       1 <0>        -0.2600
      4 C4          0.0331   -2.1161   -0.7137 C.2       1 <0>         0.3328
      5 N1          0.0334   -2.1170    0.6355 N.pl3     1 <0>        -0.3236
      6 N2          0.0231   -0.7787    1.0618 N.2       1 <0>        -0.2766
      7 C5          0.0466   -3.2487    1.4622 C.ar      1 <0>         0.1656
      8 C6         -0.6249   -4.4009    1.0749 C.ar      1 <0>        -0.1403
      9 C7         -0.6101   -5.5150    1.8909 C.ar      1 <0>        -0.0762
     10 C8          0.0722   -5.4844    3.0933 C.ar      1 <0>        -0.1100
     11 C9          0.7421   -4.3379    3.4827 C.ar      1 <0>        -0.0128
     12 C10         0.7357   -3.2217    2.6668 C.ar      1 <0>        -0.0990
     13 Cl1         1.5970   -4.3034    4.9932 Cl        1 <0>        -0.0491
     14 N3          0.0649   -3.1756   -1.6195 N.am      1 <0>        -0.6473
     15 C11         0.2745   -2.8915   -2.9224 C.2       1 <0>         0.5429
     16 O1          0.1185   -3.7672   -3.7470 O.2       1 <0>        -0.5012
     17 C12         0.6945   -1.5245   -3.3833 C.3       1 <0>        -0.1266
     18 C13        -0.0141   -0.4260   -2.5844 C.3       1 <0>        -0.0412
     19 H1         -1.0456   -0.3323   -2.9239 H         1 <0>         0.1166
     20 C14         0.7051    0.8846   -2.7748 C.2       1 <0>         0.4407
     21 O2          1.6157    1.1907   -2.0328 O.2       1 <0>        -0.4083
     22 C15         0.3181    1.7599   -3.8205 C.2       1 <0>        -0.0700
     23 C16         0.8943    2.9631   -4.0931 C.2       1 <0>        -0.0861
     24 C17         0.2081    3.5041   -5.2093 C.ar      1 <0>        -0.1527
     25 C18         0.3345    4.6898   -5.9418 C.ar      1 <0>        -0.0546
     26 C19        -0.5015    4.9286   -6.9947 C.ar      1 <0>        -0.1384
     27 C20        -1.4768    4.0039   -7.3441 C.ar      1 <0>        -0.0718
     28 C21        -1.6190    2.8302   -6.6361 C.ar      1 <0>        -0.1149
     29 C22        -0.7792    2.5645   -5.5610 C.ar      1 <0>         0.0782
     30 O3         -0.6764    1.5276   -4.7056 O.3       1 <0>        -0.1696
     31 H2          1.0042    1.8801    0.0026 H         1 <0>         0.0964
     32 H3         -0.5455    1.8639   -0.8728 H         1 <0>         0.0721
     33 H4         -0.5286    1.8543    0.9071 H         1 <0>         0.0795
     34 H5         -1.1587   -4.4256    0.1364 H         1 <0>         0.1319
     35 H6         -1.1324   -6.4110    1.5898 H         1 <0>         0.1480
     36 H7          0.0819   -6.3568    3.7298 H         1 <0>         0.1449
     37 H8          1.2625   -2.3285    2.9684 H         1 <0>         0.1491
     38 H9         -0.0598   -4.0904   -1.3219 H         1 <0>         0.4159
     39 H10         1.7719   -1.4201   -3.2556 H         1 <0>         0.1144
     40 H11         0.4488   -1.4127   -4.4393 H         1 <0>         0.1236
     41 H12         1.7167    3.4181   -3.5610 H         1 <0>         0.1706
     42 H13         1.0905    5.4135   -5.6751 H         1 <0>         0.1334
     43 H14        -0.4036    5.8437   -7.5598 H         1 <0>         0.1346
     44 H15        -2.1309    4.2069   -8.1791 H         1 <0>         0.1405
     45 H16        -2.3815    2.1184   -6.9160 H         1 <0>         0.1382
@<TRIPOS>BOND
     1    1    2 1
     2    1   31 1
     3    1   32 1
     4    1   33 1
     5    2    6 2
     6    2    3 1
     7    3   18 1
     8    3    4 2
     9    4    5 1
    10    4   14 1
    11    5    6 1
    12    5    7 1
    13    7   12 ar
    14    7    8 ar
    15    8    9 ar
    16    8   34 1
    17    9   10 ar
    18    9   35 1
    19   10   11 ar
    20   10   36 1
    21   11   12 ar
    22   11   13 1
    23   12   37 1
    24   14   15 am
    25   14   38 1
    26   15   16 2
    27   15   17 1
    28   17   18 1
    29   17   39 1
    30   17   40 1
    31   18   19 1
    32   18   20 1
    33   20   21 2
    34   20   22 1
    35   22   30 1
    36   22   23 2
    37   23   24 1
    38   23   41 1
    39   24   29 ar
    40   24   25 ar
    41   25   26 ar
    42   25   42 1
    43   26   27 ar
    44   26   43 1
    45   27   28 ar
    46   27   44 1
    47   28   29 ar
    48   28   45 1
    49   29   30 1
@<TRIPOS>MOLECULE
ZINC20717754
   58    63     0     0     0
SMALL
USER_CHARGES

@<TRIPOS>ATOM
      1 C1         -0.0167    1.3786    0.0096 C.ar      1 <0>        -0.1171
      2 C2          1.1696    2.0892    0.0021 C.ar      1 <0>        -0.1049
      3 C3          2.3774    1.4193   -0.0130 C.ar      1 <0>        -0.1071
      4 C4          2.3996    0.0309   -0.0207 C.ar      1 <0>         0.1455
      5 C5          1.2065   -0.6797   -0.0132 C.ar      1 <0>        -0.1088
      6 C6          0.0021   -0.0041    0.0020 C.ar      1 <0>        -0.1035
      7 N1          3.6228   -0.6514   -0.0366 N.pl3     1 <0>        -0.2927
      8 C7          3.8882   -1.8272    0.5764 C.2       1 <0>         0.3126
      9 C8          5.2127   -2.1451    0.2944 C.2       1 <0>        -0.2711
     10 C9          5.7330   -1.1335   -0.4903 C.2       1 <0>         0.0956
     11 N2          4.7922   -0.2402   -0.6970 N.2       1 <0>        -0.2780
     12 C10         5.8382   -3.4086    0.8148 C.3       1 <0>         0.0444
     13 C11         5.1461   -3.7965    2.1205 C.3       1 <0>        -0.0913
     14 C12         3.6603   -3.5910    2.0353 C.2       1 <0>         0.4181
     15 N3          3.1055   -2.6527    1.3281 N.2       1 <0>        -0.5583
     16 O1          2.8596   -4.4249    2.7300 O.3       1 <0>        -0.4486
     17 C13         5.7572   -4.5116   -0.1905 C.ar      1 <0>        -0.1392
     18 C14         4.6792   -5.1301   -0.7863 C.ar      1 <0>        -0.0476
     19 C15         4.9572   -6.1423   -1.6986 C.ar      1 <0>        -0.1432
     20 C16         6.2551   -6.5083   -1.9923 C.ar      1 <0>        -0.0797
     21 C17         7.3442   -5.8917   -1.3967 C.ar      1 <0>        -0.1359
     22 C18         7.0791   -4.8741   -0.4789 C.ar      1 <0>         0.1574
     23 N4          7.9612   -4.0996    0.2541 N.am      1 <0>        -0.5452
     24 C19         7.3197   -3.2110    1.0426 C.2       1 <0>         0.5439
     25 O2          7.8341   -2.4073    1.7913 O.2       1 <0>        -0.4764
     26 C20         9.4187   -4.2287    0.1827 C.3       1 <0>         0.1130
     27 C21         9.9599   -3.3029   -0.9085 C.3       1 <0>        -0.1040
     28 C22         9.4452   -3.7670   -2.2726 C.3       1 <0>        -0.1156
     29 C23         9.9864   -2.8412   -3.3638 C.3       1 <0>        -0.1192
     30 C24        11.5159   -2.8819   -3.3550 C.3       1 <0>        -0.1202
     31 C25        12.0305   -2.4178   -1.9909 C.3       1 <0>        -0.1189
     32 C26        11.4893   -3.3436   -0.8997 C.3       1 <0>        -0.1113
     33 H1         -0.9598    1.9047    0.0260 H         1 <0>         0.1298
     34 H2          1.1517    3.1690    0.0077 H         1 <0>         0.1330
     35 H3          3.3035    1.9748   -0.0193 H         1 <0>         0.1333
     36 H4          1.2205   -1.7596   -0.0195 H         1 <0>         0.1369
     37 H5         -0.9261   -0.5562    0.0083 H         1 <0>         0.1329
     38 H6          6.7420   -1.0872   -0.8726 H         1 <0>         0.1827
     39 H7          5.3492   -4.8460    2.3337 H         1 <0>         0.1173
     40 H8          5.5447   -3.1857    2.9305 H         1 <0>         0.1221
     41 H9          1.9161   -4.2374    2.6312 H         1 <0>         0.4148
     42 H10         3.6644   -4.8420   -0.5549 H         1 <0>         0.1266
     43 H11         4.1405   -6.6522   -2.1877 H         1 <0>         0.1260
     44 H12         6.4272   -7.2992   -2.7073 H         1 <0>         0.1281
     45 H13         8.3560   -6.1863   -1.6330 H         1 <0>         0.1354
     46 H14         9.8553   -3.9529    1.1427 H         1 <0>         0.0929
     47 H15         9.6811   -5.2601   -0.0528 H         1 <0>         0.0891
     48 H16         9.6225   -2.2836   -0.7205 H         1 <0>         0.0760
     49 H17         9.7826   -4.7863   -2.4606 H         1 <0>         0.0633
     50 H18         8.3557   -3.7379   -2.2789 H         1 <0>         0.0651
     51 H19         9.6198   -3.1718   -4.3356 H         1 <0>         0.0622
     52 H20         9.6491   -1.8219   -3.1758 H         1 <0>         0.0603
     53 H21        11.8533   -3.9012   -3.5430 H         1 <0>         0.0616
     54 H22        11.9014   -2.2223   -4.1324 H         1 <0>         0.0611
     55 H23        13.1201   -2.4468   -1.9846 H         1 <0>         0.0638
     56 H24        11.6931   -1.3985   -1.8029 H         1 <0>         0.0620
     57 H25        11.8560   -3.0130    0.0721 H         1 <0>         0.0653
     58 H26        11.8267   -4.3629   -1.0877 H         1 <0>         0.0654
@<TRIPOS>BOND
     1    1    6 ar
     2    1    2 ar
     3    1   33 1
     4    2    3 ar
     5    2   34 1
     6    3    4 ar
     7    3   35 1
     8    4    5 ar
     9    4    7 1
    10    5    6 ar
    11    5   36 1
    12    6   37 1
    13    7   11 1
    14    7    8 1
    15    8   15 1
    16    8    9 2
    17    9   10 1
    18    9   12 1
    19   10   11 2
    20   10   38 1
    21   12   24 1
    22   12   13 1
    23   12   17 1
    24   13   14 1
    25   13   39 1
    26   13   40 1
    27   14   15 2
    28   14   16 1
    29   16   41 1
    30   17   22 ar
    31   17   18 ar
    32   18   19 ar
    33   18   42 1
    34   19   20 ar
    35   19   43 1
    36   20   21 ar
    37   20   44 1
    38   21   22 ar
    39   21   45 1
    40   22   23 1
    41   23   24 am
    42   23   26 1
    43   24   25 2
    44   26   27 1
    45   26   46 1
    46   26   47 1
    47   27   32 1
    48   27   28 1
    49   27   48 1
    50   28   29 1
    51   28   49 1
    52   28   50 1
    53   29   30 1
    54   29   51 1
    55   29   52 1
    56   30   31 1
    57   30   53 1
    58   30   54 1
    59   31   32 1
    60   31   55 1
    61   31   56 1
    62   32   57 1
    63   32   58 1
@<TRIPOS>MOLECULE
ZINC35513795
   48    52     0     0     0
SMALL
USER_CHARGES

@<TRIPOS>ATOM
      1 C1         -0.0166    1.3743    0.0096 C.ar      1 <0>        -0.1407
      2 C2          1.1724    2.0871    0.0021 C.ar      1 <0>        -0.0651
      3 C3          2.3841    1.4304   -0.0135 C.ar      1 <0>        -0.1186
      4 C4          2.4239    0.0407   -0.0218 C.ar      1 <0>         0.1001
      5 C5          1.2194   -0.6783   -0.0137 C.ar      1 <0>        -0.1258
      6 C6          0.0021   -0.0041    0.0020 C.ar      1 <0>        -0.0363
      7 C7          1.6037   -2.1003   -0.0258 C.ar      1 <0>         0.1665
      8 C8          3.0066   -2.1118   -0.0401 C.ar      1 <0>        -0.0681
      9 O1          3.4490   -0.8393   -0.0372 O.3       1 <0>        -0.1800
     10 C9          3.6537   -3.3560   -0.0540 C.ar      1 <0>         0.4915
     11 N1          2.9176   -4.4592   -0.0529 N.ar      1 <0>        -0.5039
     12 C10         1.5917   -4.4016   -0.0390 C.ar      1 <0>         0.3202
     13 N2          0.9404   -3.2491   -0.0261 N.ar      1 <0>        -0.4967
     14 C11         0.8162   -5.6665   -0.0384 C.2       1 <0>         0.5938
     15 O2          1.3957   -6.7343   -0.0505 O.2       1 <0>        -0.4992
     16 N3         -0.5310   -5.6311   -0.0245 N.am      1 <0>        -0.7051
     17 C12        -1.2967   -6.8801   -0.0239 C.3       1 <0>         0.1616
     18 C13        -2.7704   -6.5658   -0.0071 C.ar      1 <0>        -0.1073
     19 C14        -3.4327   -6.4231    1.1979 C.ar      1 <0>        -0.0847
     20 C15        -4.7844   -6.1349    1.2140 C.ar      1 <0>        -0.1120
     21 C16        -5.4746   -5.9892    0.0238 C.ar      1 <0>        -0.0258
     22 C17        -4.8112   -6.1322   -1.1818 C.ar      1 <0>        -0.1120
     23 C18        -3.4583   -6.4148   -1.1966 C.ar      1 <0>        -0.0846
     24 Cl1        -7.1724   -5.6277    0.0432 Cl        1 <0>        -0.0656
     25 N4          5.0383   -3.4313   -0.0689 N.pl3     1 <0>        -0.5956
     26 C19         5.9589   -2.2850   -0.0658 C.3       1 <0>         0.1133
     27 C20         7.3942   -2.8499   -0.1129 C.3       1 <0>        -0.1310
     28 C21         7.1905   -4.2671   -0.7109 C.3       1 <0>        -0.1347
     29 C22         5.8310   -4.6742   -0.0843 C.3       1 <0>         0.1113
     30 H1         -0.9598    1.9001    0.0259 H         1 <0>         0.1390
     31 H2          1.1490    3.1669    0.0081 H         1 <0>         0.1435
     32 H3          3.3040    1.9962   -0.0196 H         1 <0>         0.1403
     33 H4         -0.9246   -0.5587    0.0083 H         1 <0>         0.1379
     34 H5         -0.9936   -4.7786   -0.0149 H         1 <0>         0.4146
     35 H6         -1.0576   -7.4532   -0.9197 H         1 <0>         0.0849
     36 H7         -1.0394   -7.4635    0.8601 H         1 <0>         0.0850
     37 H8         -2.8939   -6.5371    2.1270 H         1 <0>         0.1357
     38 H9         -5.3018   -6.0237    2.1555 H         1 <0>         0.1367
     39 H10        -5.3495   -6.0189   -2.1112 H         1 <0>         0.1367
     40 H11        -2.9394   -6.5217   -2.1377 H         1 <0>         0.1357
     41 H12         5.7771   -1.6611   -0.9409 H         1 <0>         0.0725
     42 H13         5.8202   -1.7007    0.8439 H         1 <0>         0.0721
     43 H14         8.0259   -2.2443   -0.7628 H         1 <0>         0.0882
     44 H15         7.8176   -2.9116    0.8896 H         1 <0>         0.0811
     45 H16         7.1268   -4.2268   -1.7983 H         1 <0>         0.0789
     46 H17         7.9837   -4.9433   -0.3924 H         1 <0>         0.0905
     47 H18         5.9745   -5.0452    0.9306 H         1 <0>         0.0733
     48 H19         5.3412   -5.4291   -0.6994 H         1 <0>         0.0877
@<TRIPOS>BOND
     1    1    6 ar
     2    1    2 ar
     3    1   30 1
     4    2    3 ar
     5    2   31 1
     6    3    4 ar
     7    3   32 1
     8    4    9 1
     9    4    5 ar
    10    5    6 ar
    11    5    7 1
    12    6   33 1
    13    7   13 ar
    14    7    8 ar
    15    8    9 1
    16    8   10 ar
    17   10   11 ar
    18   10   25 1
    19   11   12 ar
    20   12   13 ar
    21   12   14 1
    22   14   15 2
    23   14   16 am
    24   16   17 1
    25   16   34 1
    26   17   18 1
    27   17   35 1
    28   17   36 1
    29   18   23 ar
    30   18   19 ar
    31   19   20 ar
    32   19   37 1
    33   20   21 ar
    34   20   38 1
    35   21   22 ar
    36   21   24 1
    37   22   23 ar
    38   22   39 1
    39   23   40 1
    40   25   29 1
    41   25   26 1
    42   26   27 1
    43   26   41 1
    44   26   42 1
    45   27   28 1
    46   27   43 1
    47   27   44 1
    48   28   29 1
    49   28   45 1
    50   28   46 1
    51   29   47 1
    52   29   48 1
@<TRIPOS>MOLECULE
ZINC04566766
   42    43     0     0     0
SMALL
USER_CHARGES
N-[(3-bromo-4-methoxy-phenyl)methyleneamino]-5-tert-butyl-2H-pyrazole-3-carboxamide
@<TRIPOS>ATOM
      1 C1         -5.7712   -8.4601    1.4042 C.3       1 <0>        -0.1394
      2 C2         -5.8885   -7.8297    0.0151 C.3       1 <0>         0.0155
      3 C3         -7.3658   -7.6567   -0.3434 C.3       1 <0>        -0.1366
      4 C4         -5.2165   -8.7387   -1.0159 C.3       1 <0>        -0.1413
      5 C5         -5.2108   -6.4836    0.0155 C.2       1 <0>         0.0429
      6 C6         -3.8327   -6.2569    0.0036 C.2       1 <0>        -0.1335
      7 C7         -3.6876   -4.8800    0.0096 C.2       1 <0>        -0.0427
      8 N1         -4.9520   -4.3632    0.0300 N.pl3     1 <0>        -0.3841
      9 H1         -5.1761   -3.3887    0.0446 H         1 <0>         0.4492
     10 N2         -5.8091   -5.3198    0.0275 N.2       1 <0>        -0.2540
     11 C8         -2.4251   -4.1251    0.0021 C.2       1 <0>         0.6128
     12 O1         -1.3623   -4.7173   -0.0108 O.2       1 <0>        -0.4796
     13 N3         -2.4457   -2.7775    0.0095 N.am      1 <0>        -0.5830
     14 N4         -1.2433   -2.0586    0.0024 N.2       1 <0>        -0.2278
     15 C9         -1.2631   -0.7606    0.0095 C.2       1 <0>         0.1246
     16 C10         0.0021   -0.0041    0.0020 C.ar      1 <0>        -0.0942
     17 C11         1.2241   -0.6822   -0.0133 C.ar      1 <0>        -0.0192
     18 C12         2.4045    0.0288   -0.0207 C.ar      1 <0>        -0.2081
     19 C13         2.3815    1.4175   -0.0131 C.ar      1 <0>         0.1757
     20 C14         1.1692    2.0964    0.0022 C.ar      1 <0>        -0.1339
     21 C15        -0.0169    1.3931    0.0097 C.ar      1 <0>        -0.0195
     22 Br1         1.1459    3.9872    0.0125 Br        1 <0>        -0.0278
     23 O2          3.5479    2.1142   -0.0205 O.3       1 <0>        -0.2998
     24 C16         4.7577    1.3538   -0.0361 C.3       1 <0>         0.0219
     25 H2         -6.2499   -7.8125    2.1388 H         1 <0>         0.0567
     26 H3         -6.2614   -9.4337    1.4040 H         1 <0>         0.0654
     27 H4         -4.7187   -8.5833    1.6596 H         1 <0>         0.0596
     28 H5         -7.4494   -7.2076   -1.3330 H         1 <0>         0.0565
     29 H6         -7.8560   -8.6303   -0.3437 H         1 <0>         0.0599
     30 H7         -7.8445   -7.0091    0.3911 H         1 <0>         0.0612
     31 H8         -4.1640   -8.8619   -0.7605 H         1 <0>         0.0609
     32 H9         -5.7067   -9.7123   -1.0162 H         1 <0>         0.0657
     33 H10        -5.3001   -8.2896   -2.0056 H         1 <0>         0.0578
     34 H11        -3.0472   -6.9980   -0.0085 H         1 <0>         0.1671
     35 H12        -3.2930   -2.3055    0.0198 H         1 <0>         0.3804
     36 H13        -2.2065   -0.2350    0.0210 H         1 <0>         0.1252
     37 H14         1.2432   -1.7620   -0.0196 H         1 <0>         0.1461
     38 H15         3.3490   -0.4947   -0.0322 H         1 <0>         0.1433
     39 H16        -0.9589    1.9212    0.0170 H         1 <0>         0.1461
     40 H17         4.8004    0.7206    0.8501 H         1 <0>         0.0614
     41 H18         4.7834    0.7302   -0.9297 H         1 <0>         0.0614
     42 H19         5.6122    2.0305   -0.0406 H         1 <0>         0.1072
@<TRIPOS>BOND
     1    1    2 1
     2    1   25 1
     3    1   26 1
     4    1   27 1
     5    2    3 1
     6    2    4 1
     7    2    5 1
     8    3   28 1
     9    3   29 1
    10    3   30 1
    11    4   31 1
    12    4   32 1
    13    4   33 1
    14    5   10 2
    15    5    6 1
    16    6    7 2
    17    6   34 1
    18    7    8 1
    19    7   11 1
    20    8    9 1
    21    8   10 1
    22   11   12 2
    23   11   13 am
    24   13   14 1
    25   13   35 1
    26   14   15 2
    27   15   16 1
    28   15   36 1
    29   16   21 ar
    30   16   17 ar
    31   17   18 ar
    32   17   37 1
    33   18   19 ar
    34   18   38 1
    35   19   20 ar
    36   19   23 1
    37   20   21 ar
    38   20   22 1
    39   21   39 1
    40   23   24 1
    41   24   40 1
    42   24   41 1
    43   24   42 1
@<TRIPOS>MOLECULE
ZINC15866617
   48    50     0     0     0
SMALL
USER_CHARGES
N-(4-ethylphenyl)-2,3-dimethyl-5-(6-oxo-1H-pyridazin-3-yl)benzenesulfonamide
@<TRIPOS>ATOM
      1 C1         -8.5006    4.9684    2.8774 C.3       1 <0>        -0.1479
      2 C2         -7.2939    5.9044    2.9696 C.3       1 <0>        -0.0870
      3 C3         -6.0869    5.1248    3.4241 C.ar      1 <0>        -0.0860
      4 C4         -5.8055    5.0136    4.7734 C.ar      1 <0>        -0.0948
      5 C5         -4.7034    4.2952    5.1936 C.ar      1 <0>        -0.1437
      6 C6         -3.8708    3.6934    4.2585 C.ar      1 <0>         0.1350
      7 C7         -4.1533    3.8119    2.9036 C.ar      1 <0>        -0.1232
      8 C8         -5.2602    4.5270    2.4905 C.ar      1 <0>        -0.1014
      9 N1         -2.7525    2.9704    4.6797 N.pl3     1 <0>        -1.0547
     10 S1         -1.7420    3.6034    5.8289 S.o2      1 <0>         2.6923
     11 O1         -2.5613    3.9789    6.9276 O.2       1 <0>        -0.9452
     12 O2         -0.6585    2.6938    5.9625 O.2       1 <0>        -0.9464
     13 C9         -1.0707    5.0929    5.1691 C.ar      1 <0>        -0.6729
     14 C10        -1.3440    6.3009    5.7784 C.ar      1 <0>         0.0141
     15 C11        -0.8120    7.4779    5.2558 C.ar      1 <0>        -0.0537
     16 C12        -0.0064    7.4281    4.1195 C.ar      1 <0>        -0.0400
     17 C13         0.2602    6.2149    3.5185 C.ar      1 <0>        -0.1025
     18 C14        -0.2664    5.0488    4.0449 C.ar      1 <0>         0.0351
     19 C15         0.0330    3.7262    3.3874 C.3       1 <0>        -0.1792
     20 C16         1.1311    6.1594    2.2899 C.3       1 <0>        -0.1194
     21 C17        -1.1018    8.7793    5.9066 C.2       1 <0>         0.1039
     22 C18        -0.5543    9.9702    5.3749 C.2       1 <0>        -0.0628
     23 C19        -0.8464   11.1484    5.9965 C.2       1 <0>        -0.1757
     24 C20        -1.6710   11.1046    7.1425 C.2       1 <0>         0.4770
     25 O3         -1.9549   12.1331    7.7351 O.2       1 <0>        -0.5261
     26 N2         -2.1411    9.9202    7.5764 N.am      1 <0>        -0.4401
     27 H1         -2.7069    9.8970    8.3640 H         1 <0>         0.4439
     28 N3         -1.8605    8.8204    6.9763 N.2       1 <0>        -0.2089
     29 H2         -8.2903    4.1741    2.1611 H         1 <0>         0.0560
     30 H3         -8.6975    4.5319    3.8565 H         1 <0>         0.0568
     31 H4         -9.3736    5.5322    2.5487 H         1 <0>         0.0588
     32 H5         -7.0969    6.3409    1.9904 H         1 <0>         0.0723
     33 H6         -7.5042    6.6987    3.6859 H         1 <0>         0.0727
     34 H7         -6.4505    5.4858    5.4997 H         1 <0>         0.1289
     35 H8         -4.4866    4.2050    6.2477 H         1 <0>         0.1549
     36 H9         -3.5083    3.3449    2.1740 H         1 <0>         0.1279
     37 H10        -5.4807    4.6192    1.4373 H         1 <0>         0.1267
     38 H11        -2.5676    2.0976    4.2990 H         1 <0>         0.4274
     39 H12        -1.9692    6.3338    6.6585 H         1 <0>         0.1546
     40 H13         0.4088    8.3373    3.7104 H         1 <0>         0.1383
     41 H14        -0.7756    3.4694    2.7031 H         1 <0>         0.0888
     42 H15         0.9686    3.7996    2.8330 H         1 <0>         0.0924
     43 H16         0.1225    2.9531    4.1506 H         1 <0>         0.1037
     44 H17         2.1721    6.0343    2.5878 H         1 <0>         0.0775
     45 H18         0.8277    5.3178    1.6672 H         1 <0>         0.0752
     46 H19         1.0234    7.0860    1.7261 H         1 <0>         0.0724
     47 H20         0.0753    9.9475    4.4977 H         1 <0>         0.1559
     48 H21        -0.4554   12.0849    5.6270 H         1 <0>         0.1691
@<TRIPOS>BOND
     1    1    2 1
     2    1   29 1
     3    1   30 1
     4    1   31 1
     5    2    3 1
     6    2   32 1
     7    2   33 1
     8    3    8 ar
     9    3    4 ar
    10    4    5 ar
    11    4   34 1
    12    5    6 ar
    13    5   35 1
    14    6    7 ar
    15    6    9 1
    16    7    8 ar
    17    7   36 1
    18    8   37 1
    19    9   10 1
    20    9   38 1
    21   10   11 2
    22   10   12 2
    23   10   13 1
    24   13   18 ar
    25   13   14 ar
    26   14   15 ar
    27   14   39 1
    28   15   16 ar
    29   15   21 1
    30   16   17 ar
    31   16   40 1
    32   17   18 ar
    33   17   20 1
    34   18   19 1
    35   19   41 1
    36   19   42 1
    37   19   43 1
    38   20   44 1
    39   20   45 1
    40   20   46 1
    41   21   28 2
    42   21   22 1
    43   22   23 2
    44   22   47 1
    45   23   24 1
    46   23   48 1
    47   24   25 2
    48   24   26 am
    49   26   27 1
    50   26   28 1
@<TRIPOS>MOLECULE
ZINC38651173
   41    44     0     0     0
SMALL
USER_CHARGES

@<TRIPOS>ATOM
      1 C1         -0.0060    1.1416    0.0408 C.ar      1 <0>        -0.1033
      2 C2          1.1304    1.9276   -0.0085 C.ar      1 <0>        -0.1069
      3 C3          2.3803    1.3375   -0.0038 C.ar      1 <0>        -0.0649
      4 C4          2.4948   -0.0390    0.0498 C.ar      1 <0>        -0.0930
      5 C5          1.3582   -0.8260    0.0992 C.ar      1 <0>        -0.0320
      6 C6          0.1072   -0.2346    0.0948 C.ar      1 <0>        -0.1105
      7 Cl1         1.5013   -2.5548    0.1659 Cl        1 <0>        -0.0691
      8 C7          3.6184    2.1950   -0.0575 C.3       1 <0>         0.0856
      9 H1          3.3289    3.2452   -0.0956 H         1 <0>         0.1062
     10 C8          4.4103    1.8508   -1.2911 C.ar      1 <0>        -0.1179
     11 C9          3.9865    2.3156   -2.5236 C.ar      1 <0>        -0.0577
     12 C10         4.7000    2.0098   -3.6655 C.ar      1 <0>        -0.1291
     13 C11         5.8474    1.2335   -3.5794 C.ar      1 <0>         0.1182
     14 C12         6.2744    0.7668   -2.3470 C.ar      1 <0>        -0.1181
     15 C13         5.5551    1.0747   -1.1994 C.ar      1 <0>         0.1337
     16 O1          5.9862    0.6100   -0.0008 O.3       1 <0>        -0.2416
     17 C14         5.5615    1.1892    1.1345 C.2       1 <0>         0.4446
     18 C15         4.4465    1.9512    1.1726 C.2       1 <0>        -0.2801
     19 C16         4.0469    2.5397    2.4154 C.1       1 <0>         0.2715
     20 N1          3.7298    3.0066    3.4013 N.1       1 <0>        -0.4409
     21 N2          6.2804    0.9996    2.2883 N.pl3     1 <0>        -0.8281
     22 O2          6.5507    0.9315   -4.7025 O.3       1 <0>        -0.2811
     23 C17         7.2152    1.9293   -5.3212 C.2       1 <0>         0.5547
     24 O3          7.2602    3.0349   -4.8160 O.2       1 <0>        -0.4630
     25 C18         7.8823    1.6814   -6.6012 C.2       1 <0>        -0.0733
     26 C19         8.5908    2.5963   -7.3281 C.2       1 <0>        -0.0934
     27 C20         9.0504    1.9315   -8.4750 C.2       1 <0>        -0.2287
     28 C21         8.6085    0.6563   -8.3998 C.2       1 <0>         0.0180
     29 O4          7.9102    0.5080   -7.2668 O.3       1 <0>        -0.1500
     30 H2         -0.9823    1.6034    0.0416 H         1 <0>         0.1341
     31 H3          1.0414    3.0031   -0.0511 H         1 <0>         0.1305
     32 H4          3.4715   -0.5000    0.0528 H         1 <0>         0.1271
     33 H5         -0.7805   -0.8485    0.1333 H         1 <0>         0.1335
     34 H6          3.0939    2.9197   -2.5927 H         1 <0>         0.1455
     35 H7          4.3652    2.3743   -4.6254 H         1 <0>         0.1393
     36 H8          7.1668    0.1622   -2.2785 H         1 <0>         0.1503
     37 H9          7.0823    0.4540    2.2760 H         1 <0>         0.4128
     38 H10         5.9865    1.4112    3.1160 H         1 <0>         0.4267
     39 H11         8.7630    3.6308   -7.0700 H         1 <0>         0.1675
     40 H12         9.6451    2.3586   -9.2689 H         1 <0>         0.1648
     41 H13         8.7919   -0.1169   -9.1313 H         1 <0>         0.2181
@<TRIPOS>BOND
     1    1    6 ar
     2    1    2 ar
     3    1   30 1
     4    2    3 ar
     5    2   31 1
     6    3    4 ar
     7    3    8 1
     8    4    5 ar
     9    4   32 1
    10    5    6 ar
    11    5    7 1
    12    6   33 1
    13    8    9 1
    14    8   18 1
    15    8   10 1
    16   10   15 ar
    17   10   11 ar
    18   11   12 ar
    19   11   34 1
    20   12   13 ar
    21   12   35 1
    22   13   14 ar
    23   13   22 1
    24   14   15 ar
    25   14   36 1
    26   15   16 1
    27   16   17 1
    28   17   18 2
    29   17   21 1
    30   18   19 1
    31   19   20 3
    32   21   37 1
    33   21   38 1
    34   22   23 1
    35   23   24 2
    36   23   25 1
    37   25   29 1
    38   25   26 2
    39   26   27 1
    40   26   39 1
    41   27   28 2
    42   27   40 1
    43   28   29 1
    44   28   41 1
@<TRIPOS>MOLECULE
ZINC47163244
   38    40     0     0     0
SMALL
USER_CHARGES

@<TRIPOS>ATOM
      1 C1          0.0352    1.4182    0.0096 C.ar      1 <0>        -0.0932
      2 C2          1.2203    2.1296   -0.0066 C.ar      1 <0>        -0.0933
      3 C3          2.4375    1.4668   -0.0262 C.ar      1 <0>        -0.0424
      4 C4          2.4654    0.0814   -0.0290 C.ar      1 <0>        -0.1414
      5 C5          1.2570   -0.6440   -0.0120 C.ar      1 <0>        -0.1412
      6 C6          0.0476    0.0321    0.0070 C.ar      1 <0>        -0.0424
      7 C7          1.6419   -2.0711   -0.0207 C.2       1 <0>         0.5757
      8 O1          0.8745   -3.0123   -0.0113 O.2       1 <0>        -0.4551
      9 N1          2.9845   -2.1529   -0.0414 N.am      1 <0>        -0.5747
     10 C8          3.5437   -0.9294   -0.0475 C.2       1 <0>         0.5761
     11 O2          4.7351   -0.6947   -0.0657 O.2       1 <0>        -0.4557
     12 C9          3.7384   -3.4090   -0.0551 C.3       1 <0>         0.1009
     13 C10         3.9787   -3.8439   -1.5021 C.3       1 <0>         0.1224
     14 N2          4.7326   -5.0999   -1.5157 N.am      1 <0>        -0.7344
     15 C11         5.0615   -5.6758   -2.6891 C.2       1 <0>         0.7111
     16 O3          4.7325   -5.1528   -3.7363 O.2       1 <0>        -0.5642
     17 N3          5.7550   -6.8314   -2.7016 N.am      1 <0>        -0.6814
     18 C12         6.0156   -7.4786   -3.9160 C.ar      1 <0>         0.1817
     19 C13         6.2477   -6.7344   -5.0648 C.ar      1 <0>        -0.0970
     20 C14         6.5044   -7.3749   -6.2613 C.ar      1 <0>        -0.0834
     21 C15         6.5305   -8.7575   -6.3162 C.ar      1 <0>        -0.0412
     22 C16         6.2991   -9.5023   -5.1734 C.ar      1 <0>        -0.0821
     23 C17         6.0478   -8.8665   -3.9721 C.ar      1 <0>        -0.0564
     24 Cl1         5.7658   -9.8010   -2.5365 Cl        1 <0>        -0.0518
     25 Cl2         6.8534   -9.5588   -7.8220 Cl        1 <0>        -0.0553
     26 H1         -0.9068    1.9460    0.0290 H         1 <0>         0.1447
     27 H2          1.1976    3.2094   -0.0044 H         1 <0>         0.1447
     28 H3          3.3603    2.0278   -0.0395 H         1 <0>         0.1441
     29 H4         -0.8813   -0.5185    0.0200 H         1 <0>         0.1441
     30 H5          4.6962   -3.2633    0.4444 H         1 <0>         0.1068
     31 H6          3.1702   -4.1794    0.4663 H         1 <0>         0.1067
     32 H7          3.0209   -3.9896   -2.0016 H         1 <0>         0.0790
     33 H8          4.5468   -3.0735   -2.0234 H         1 <0>         0.0792
     34 H9          4.9950   -5.5172   -0.6803 H         1 <0>         0.4022
     35 H10         6.0737   -7.2148   -1.8695 H         1 <0>         0.4118
     36 H11         6.2272   -5.6554   -5.0231 H         1 <0>         0.1609
     37 H12         6.6846   -6.7961   -7.1551 H         1 <0>         0.1453
     38 H13         6.3197  -10.5812   -5.2190 H         1 <0>         0.1492
@<TRIPOS>BOND
     1    1    6 ar
     2    1    2 ar
     3    1   26 1
     4    2    3 ar
     5    2   27 1
     6    3    4 ar
     7    3   28 1
     8    4   10 1
     9    4    5 ar
    10    5    6 ar
    11    5    7 1
    12    6   29 1
    13    7    8 2
    14    7    9 am
    15    9   10 am
    16    9   12 1
    17   10   11 2
    18   12   13 1
    19   12   30 1
    20   12   31 1
    21   13   14 1
    22   13   32 1
    23   13   33 1
    24   14   15 am
    25   14   34 1
    26   15   16 2
    27   15   17 am
    28   17   18 1
    29   17   35 1
    30   18   23 ar
    31   18   19 ar
    32   19   20 ar
    33   19   36 1
    34   20   21 ar
    35   20   37 1
    36   21   22 ar
    37   21   25 1
    38   22   23 ar
    39   22   38 1
    40   23   24 1
@<TRIPOS>MOLECULE
ZINC55893434
   46    48     0     0     0
SMALL
USER_CHARGES

@<TRIPOS>ATOM
      1 C1         -0.0187    1.5258    0.0104 C.3       1 <0>        -0.1611
      2 C2          0.0021   -0.0041    0.0020 C.3       1 <0>         0.1467
      3 H1          0.5124   -0.3544   -0.8951 H         1 <0>         0.1129
      4 C3         -1.4333   -0.5318    0.0090 C.3       1 <0>        -0.1519
      5 C4         -1.4484   -1.9870    0.3958 C.2       1 <0>         0.5281
      6 O1         -1.6231   -2.8347   -0.4541 O.2       1 <0>        -0.5176
      7 N1         -1.2682   -2.3544    1.6831 N.am      1 <0>        -0.6763
      8 C5         -0.9697   -1.3967    2.6590 C.ar      1 <0>         0.1431
      9 C6         -1.6731   -1.3541    3.8514 C.ar      1 <0>        -0.1208
     10 C7         -1.3445   -0.4137    4.8106 C.ar      1 <0>        -0.0875
     11 C8         -0.3156    0.4824    4.5843 C.ar      1 <0>        -0.1119
     12 C9          0.3852    0.4523    3.3927 C.ar      1 <0>        -0.0969
     13 C10         0.0544   -0.4790    2.4221 C.ar      1 <0>         0.0984
     14 N2          0.7137   -0.4875    1.1867 N.am      1 <0>        -0.5634
     15 C11         1.9823   -0.9323    1.0914 C.2       1 <0>         0.5229
     16 O2          2.5451   -0.9345    0.0169 O.2       1 <0>        -0.5149
     17 C12         2.7018   -1.4268    2.3197 C.3       1 <0>         0.1061
     18 N3          4.0555   -1.8517    1.9549 N.pl3     1 <0>        -0.7246
     19 C13         4.9197   -2.3521    2.9350 C.ar      1 <0>         0.2726
     20 C14         4.4923   -2.4514    4.2524 C.ar      1 <0>        -0.2366
     21 C15         5.3467   -2.9466    5.2211 C.ar      1 <0>         0.1652
     22 C16         6.6313   -3.3438    4.8763 C.ar      1 <0>        -0.0341
     23 C17         7.0587   -3.2446    3.5594 C.ar      1 <0>         0.1656
     24 C18         6.2028   -2.7548    2.5893 C.ar      1 <0>        -0.2266
     25 F1          8.3092   -3.6308    3.2242 F         1 <0>        -0.1194
     26 O3          7.4721   -3.8302    5.8298 O.3       1 <0>        -0.3160
     27 C19         7.4476   -5.2407    6.0579 C.3       1 <0>         0.0282
     28 F2          4.9309   -3.0433    6.5029 F         1 <0>        -0.1203
     29 H2          1.0039    1.9031    0.0027 H         1 <0>         0.0678
     30 H3         -0.5459    1.8868   -0.8726 H         1 <0>         0.0777
     31 H4         -0.5289    1.8773    0.9072 H         1 <0>         0.0645
     32 H5         -2.0245    0.0386    0.7253 H         1 <0>         0.0987
     33 H6         -1.8651   -0.4176   -0.9853 H         1 <0>         0.1203
     34 H7         -1.3466   -3.2884    1.9329 H         1 <0>         0.4129
     35 H8         -2.4764   -2.0531    4.0314 H         1 <0>         0.1372
     36 H9         -1.8936   -0.3788    5.7399 H         1 <0>         0.1366
     37 H10        -0.0588    1.2088    5.3412 H         1 <0>         0.1365
     38 H11         1.1882    1.1533    3.2190 H         1 <0>         0.1350
     39 H12         2.7586   -0.6244    3.0553 H         1 <0>         0.1000
     40 H13         2.1581   -2.2708    2.7441 H         1 <0>         0.0964
     41 H14         4.3528   -1.7860    1.0339 H         1 <0>         0.4180
     42 H15         3.4931   -2.1417    4.5208 H         1 <0>         0.1445
     43 H16         6.5338   -2.6817    1.5639 H         1 <0>         0.1481
     44 H17         6.4471   -5.5412    6.3688 H         1 <0>         0.0480
     45 H18         7.7144   -5.7621    5.1386 H         1 <0>         0.0483
     46 H19         8.1628   -5.4946    6.8403 H         1 <0>         0.0994
@<TRIPOS>BOND
     1    1    2 1
     2    1   29 1
     3    1   30 1
     4    1   31 1
     5    2    3 1
     6    2   14 1
     7    2    4 1
     8    4    5 1
     9    4   32 1
    10    4   33 1
    11    5    6 2
    12    5    7 am
    13    7    8 1
    14    7   34 1
    15    8   13 ar
    16    8    9 ar
    17    9   10 ar
    18    9   35 1
    19   10   11 ar
    20   10   36 1
    21   11   12 ar
    22   11   37 1
    23   12   13 ar
    24   12   38 1
    25   13   14 1
    26   14   15 am
    27   15   16 2
    28   15   17 1
    29   17   18 1
    30   17   39 1
    31   17   40 1
    32   18   19 1
    33   18   41 1
    34   19   24 ar
    35   19   20 ar
    36   20   21 ar
    37   20   42 1
    38   21   22 ar
    39   21   28 1
    40   22   23 ar
    41   22   26 1
    42   23   24 ar
    43   23   25 1
    44   24   43 1
    45   26   27 1
    46   27   44 1
    47   27   45 1
    48   27   46 1
@<TRIPOS>MOLECULE
ZINC35283871
   29    30     0     0     0
SMALL
USER_CHARGES

@<TRIPOS>ATOM
      1 C1          0.1358    1.2400   -0.2693 C.ar      1 <0>        -0.2172
      2 C2          1.2934    1.9895   -0.1961 C.ar      1 <0>         0.0326
      3 C3          2.5239    1.3607   -0.1427 C.ar      1 <0>        -0.7354
      4 C4          2.5998   -0.0199   -0.1619 C.ar      1 <0>         0.0315
      5 C5          1.4461   -0.7755   -0.2350 C.ar      1 <0>        -0.2157
      6 C6          0.2084   -0.1471   -0.2888 C.ar      1 <0>         0.2739
      7 N1         -0.9604   -0.9082   -0.3622 N.pl3     1 <0>        -0.8636
      8 S1          3.9984    2.3209   -0.0506 S.o2      1 <0>         2.6921
      9 O1          5.0454    1.5073   -0.5614 O.2       1 <0>        -0.9479
     10 O2          3.6880    3.5953   -0.5974 O.2       1 <0>        -0.9463
     11 N2          4.3264    2.5618    1.5546 N.pl3     1 <0>        -1.0519
     12 C7          4.5536    1.4665    2.3938 C.ar      1 <0>         0.1430
     13 C8          5.2175    0.3467    1.9117 C.ar      1 <0>        -0.1445
     14 C9          5.4406   -0.7346    2.7439 C.ar      1 <0>        -0.0165
     15 C10         5.0031   -0.7018    4.0564 C.ar      1 <0>        -0.0960
     16 C11         4.3415    0.4118    4.5403 C.ar      1 <0>        -0.1161
     17 C12         4.1201    1.4990    3.7149 C.ar      1 <0>         0.0854
     18 F1          3.4791    2.5893    4.1898 F         1 <0>        -0.1276
     19 Cl1         6.2702   -2.1354    2.1414 Cl        1 <0>        -0.0478
     20 H1         -0.8251    1.7316   -0.3068 H         1 <0>         0.1325
     21 H2          1.2376    3.0680   -0.1809 H         1 <0>         0.1404
     22 H3          3.5624   -0.5078   -0.1201 H         1 <0>         0.1386
     23 H4          1.5061   -1.8537   -0.2503 H         1 <0>         0.1327
     24 H5         -1.8241   -0.4683   -0.3997 H         1 <0>         0.4044
     25 H6         -0.9084   -1.8768   -0.3758 H         1 <0>         0.4045
     26 H7          4.3608    3.4626    1.9127 H         1 <0>         0.4321
     27 H8          5.5590    0.3201    0.8875 H         1 <0>         0.1816
     28 H9          5.1785   -1.5480    4.7040 H         1 <0>         0.1488
     29 H10         4.0010    0.4342    5.5649 H         1 <0>         0.1524
@<TRIPOS>BOND
     1    1    6 ar
     2    1    2 ar
     3    1   20 1
     4    2    3 ar
     5    2   21 1
     6    3    4 ar
     7    3    8 1
     8    4    5 ar
     9    4   22 1
    10    5    6 ar
    11    5   23 1
    12    6    7 1
    13    7   24 1
    14    7   25 1
    15    8    9 2
    16    8   10 2
    17    8   11 1
    18   11   12 1
    19   11   26 1
    20   12   17 ar
    21   12   13 ar
    22   13   14 ar
    23   13   27 1
    24   14   15 ar
    25   14   19 1
    26   15   16 ar
    27   15   28 1
    28   16   17 ar
    29   16   29 1
    30   17   18 1
@<TRIPOS>MOLECULE
ZINC37074459
   36    38     0     0     0
SMALL
USER_CHARGES

@<TRIPOS>ATOM
      1 C1         -0.0167    1.3784    0.0096 C.ar      1 <0>        -0.0810
      2 C2          1.1695    2.0865    0.0021 C.ar      1 <0>        -0.1476
      3 C3          2.3802    1.4093   -0.0131 C.ar      1 <0>         0.1171
      4 C4          2.3963    0.0221   -0.0206 C.ar      1 <0>        -0.1476
      5 C5          1.2074   -0.6814   -0.0130 C.ar      1 <0>        -0.0810
      6 C6          0.0021   -0.0041    0.0020 C.ar      1 <0>        -0.1227
      7 C7         -1.2934   -0.7740    0.0107 C.3       1 <0>         0.1675
      8 N1         -1.7268   -1.0161   -1.3676 N.pl3     1 <0>        -0.7358
      9 C8         -2.9112   -1.7171   -1.6152 C.ar      1 <0>         0.2212
     10 C9         -3.6794   -2.1788   -0.5561 C.ar      1 <0>        -0.2102
     11 C10        -4.8541   -2.8733   -0.8057 C.ar      1 <0>         0.2024
     12 C11        -5.2587   -3.1048   -2.1143 C.ar      1 <0>        -0.1564
     13 C12        -4.4924   -2.6450   -3.1683 C.ar      1 <0>        -0.0663
     14 C13        -3.3235   -1.9474   -2.9236 C.ar      1 <0>         0.0014
     15 F1         -2.5793   -1.4938   -3.9558 F         1 <0>        -0.1414
     16 C14        -6.5359   -3.8586   -2.3812 C.3       1 <0>        -0.0699
     17 C15        -6.7382   -4.9206   -1.3001 C.3       1 <0>        -0.1393
     18 C16        -6.5467   -4.3088    0.0615 C.2       1 <0>         0.5226
     19 O1         -7.2234   -4.6930    0.9919 O.2       1 <0>        -0.5241
     20 N2         -5.6330   -3.3409    0.2587 N.am      1 <0>        -0.6630
     21 O2          3.5484    2.1036   -0.0209 O.3       1 <0>        -0.4993
     22 H1         -0.9594    1.9052    0.0259 H         1 <0>         0.1296
     23 H2          1.1543    3.1664    0.0076 H         1 <0>         0.1321
     24 H3          3.3375   -0.5074   -0.0328 H         1 <0>         0.1321
     25 H4          1.2194   -1.7613   -0.0189 H         1 <0>         0.1296
     26 H5         -1.1460   -1.7274    0.5180 H         1 <0>         0.0729
     27 H6         -2.0553   -0.1973    0.5352 H         1 <0>         0.0728
     28 H7         -1.1923   -0.6901   -2.1085 H         1 <0>         0.4079
     29 H8         -3.3633   -1.9981    0.4607 H         1 <0>         0.1369
     30 H9         -4.8090   -2.8270   -4.1847 H         1 <0>         0.1427
     31 H10        -7.3763   -3.1645   -2.3702 H         1 <0>         0.0825
     32 H11        -6.4760   -4.3406   -3.3571 H         1 <0>         0.0922
     33 H12        -7.7469   -5.3268   -1.3758 H         1 <0>         0.1107
     34 H13        -6.0146   -5.7234   -1.4413 H         1 <0>         0.1054
     35 H14        -5.5132   -2.9649    1.1448 H         1 <0>         0.4117
     36 H15         3.8951    2.3001    0.8601 H         1 <0>         0.3944
@<TRIPOS>BOND
     1    1    6 ar
     2    1    2 ar
     3    1   22 1
     4    2    3 ar
     5    2   23 1
     6    3    4 ar
     7    3   21 1
     8    4    5 ar
     9    4   24 1
    10    5    6 ar
    11    5   25 1
    12    6    7 1
    13    7    8 1
    14    7   26 1
    15    7   27 1
    16    8    9 1
    17    8   28 1
    18    9   14 ar
    19    9   10 ar
    20   10   11 ar
    21   10   29 1
    22   11   20 1
    23   11   12 ar
    24   12   13 ar
    25   12   16 1
    26   13   14 ar
    27   13   30 1
    28   14   15 1
    29   16   17 1
    30   16   31 1
    31   16   32 1
    32   17   18 1
    33   17   33 1
    34   17   34 1
    35   18   19 2
    36   18   20 am
    37   20   35 1
    38   21   36 1
@<TRIPOS>MOLECULE
ZINC49310031
   36    37     0     0     0
SMALL
USER_CHARGES

@<TRIPOS>ATOM
      1 C1         -0.0168    1.3842    0.0097 C.ar      1 <0>        -0.1579
      2 C2          1.1713    2.0871    0.0021 C.ar      1 <0>        -0.1336
      3 C3          2.3839    1.4077   -0.0118 C.ar      1 <0>         0.1662
      4 C4          2.4055    0.0217   -0.0161 C.ar      1 <0>        -0.0943
      5 C5          1.2128   -0.6814   -0.0111 C.ar      1 <0>        -0.1580
      6 C6          0.0021   -0.0041    0.0020 C.ar      1 <0>         0.1731
      7 N1         -1.2007   -0.7205    0.0081 N.pl3     1 <0>        -0.8864
      8 C7          3.7018   -0.7450   -0.0203 C.3       1 <0>        -0.0743
      9 C8          4.8437    0.1359   -0.5264 C.3       1 <0>        -0.1347
     10 C9          4.8417    1.4522    0.2618 C.3       1 <0>         0.1314
     11 N2          3.5776    2.1444   -0.0238 N.pl3     1 <0>        -0.6173
     12 C10         3.5642    3.5797   -0.3173 C.3       1 <0>         0.1182
     13 C11         3.3998    4.3532    0.9655 C.2       1 <0>         0.4907
     14 O1          3.3034    3.7637    2.0210 O.2       1 <0>        -0.5102
     15 N3          3.3600    5.7001    0.9399 N.am      1 <0>        -0.7352
     16 C12         3.2002    6.4521    2.1870 C.3       1 <0>         0.0785
     17 C13         3.1862    7.9510    1.8804 C.3       1 <0>         0.4484
     18 F1          2.1211    8.2413    1.0211 F         1 <0>        -0.1776
     19 F2          3.0336    8.6691    3.0714 F         1 <0>        -0.1718
     20 F3          4.3911    8.3132    1.2686 F         1 <0>        -0.1779
     21 H1         -0.9584    1.9128    0.0260 H         1 <0>         0.1179
     22 H2          1.1586    3.1670    0.0066 H         1 <0>         0.1129
     23 H3          1.2249   -1.7613   -0.0178 H         1 <0>         0.1187
     24 H4         -2.0472   -0.2469    0.0177 H         1 <0>         0.3951
     25 H5         -1.1876   -1.6904    0.0028 H         1 <0>         0.3950
     26 H6          3.9261   -1.0777    0.9931 H         1 <0>         0.0732
     27 H7          3.6032   -1.6145   -0.6702 H         1 <0>         0.0749
     28 H8          5.7939   -0.3771   -0.3780 H         1 <0>         0.0779
     29 H9          4.7012    0.3450   -1.5866 H         1 <0>         0.0704
     30 H10         4.9153    1.2436    1.3291 H         1 <0>         0.0610
     31 H11         5.6813    2.0721   -0.0527 H         1 <0>         0.0752
     32 H12         4.5029    3.8619   -0.7940 H         1 <0>         0.1074
     33 H13         2.7343    3.8059   -0.9869 H         1 <0>         0.1063
     34 H14         3.4371    6.1716    0.0957 H         1 <0>         0.4078
     35 H15         2.2615    6.1699    2.6637 H         1 <0>         0.1145
     36 H16         4.0301    6.2259    2.8565 H         1 <0>         0.1143
@<TRIPOS>BOND
     1    1    6 ar
     2    1    2 ar
     3    1   21 1
     4    2    3 ar
     5    2   22 1
     6    3   11 1
     7    3    4 ar
     8    4    5 ar
     9    4    8 1
    10    5    6 ar
    11    5   23 1
    12    6    7 1
    13    7   24 1
    14    7   25 1
    15    8    9 1
    16    8   26 1
    17    8   27 1
    18    9   10 1
    19    9   28 1
    20    9   29 1
    21   10   11 1
    22   10   30 1
    23   10   31 1
    24   11   12 1
    25   12   13 1
    26   12   32 1
    27   12   33 1
    28   13   14 2
    29   13   15 am
    30   15   16 1
    31   15   34 1
    32   16   17 1
    33   16   35 1
    34   16   36 1
    35   17   18 1
    36   17   19 1
    37   17   20 1
@<TRIPOS>MOLECULE
ZINC53127138
   45    47     0     0     0
SMALL
USER_CHARGES

@<TRIPOS>ATOM
      1 C1          0.0049    0.8697    0.2175 C.ar      1 <0>        -0.1129
      2 C2          1.1377    1.6596    0.1509 C.ar      1 <0>        -0.1184
      3 C3          2.3853    1.0706    0.1170 C.ar      1 <0>        -0.1008
      4 C4          2.5101   -0.3107    0.1508 C.ar      1 <0>        -0.1189
      5 C5          1.3807   -1.0976    0.2208 C.ar      1 <0>        -0.0699
      6 C6          0.1273   -0.5048    0.2519 C.ar      1 <0>        -0.1219
      7 C7          1.4661   -2.6014    0.2713 C.3       1 <0>        -0.1231
      8 C8          2.8512   -3.0612   -0.1848 C.3       1 <0>         0.0564
      9 N1          3.8655   -2.3004    0.5620 N.3       1 <0>        -0.6609
     10 C9          3.8926   -0.9070    0.1061 C.3       1 <0>         0.1113
     11 H1          4.2682   -0.8697   -0.9164 H         1 <0>         0.1082
     12 C10         4.8083   -0.1088    0.9980 C.2       1 <0>         0.5364
     13 O1          5.0758   -0.5130    2.1097 O.2       1 <0>        -0.5267
     14 N2          5.3301    1.0542    0.5601 N.am      1 <0>        -0.7087
     15 C11         6.1257    1.8870    1.4654 C.3       1 <0>         0.1887
     16 C12         6.5103    3.1873    0.7566 C.3       1 <0>        -0.1198
     17 C13         7.3319    2.8633   -0.4927 C.3       1 <0>        -0.1210
     18 C14         8.5999    2.1089   -0.0877 C.3       1 <0>        -0.1219
     19 C15         8.2153    0.8086    0.6211 C.3       1 <0>        -0.1138
     20 C16         7.3936    1.1326    1.8704 C.3       1 <0>        -0.1310
     21 C17         5.3040    2.2110    2.7148 C.3       1 <0>         0.0616
     22 O2          4.0624    2.8033    2.3279 O.3       1 <0>        -0.5655
     23 H2         -0.9731    1.3270    0.2471 H         1 <0>         0.1225
     24 H3          1.0463    2.7354    0.1252 H         1 <0>         0.1228
     25 H4          3.2695    1.6884    0.0636 H         1 <0>         0.1324
     26 H5         -0.7576   -1.1218    0.3033 H         1 <0>         0.1221
     27 H6          1.2906   -2.9398    1.2925 H         1 <0>         0.0799
     28 H7          0.7085   -3.0292   -0.3853 H         1 <0>         0.0837
     29 H8          2.9689   -4.1256    0.0182 H         1 <0>         0.0896
     30 H9          2.9658   -2.8743   -1.2525 H         1 <0>         0.0780
     31 H10         3.6978   -2.3525    1.5556 H         1 <0>         0.3567
     32 H11         5.1787    1.3398   -0.3545 H         1 <0>         0.3990
     33 H12         5.6070    3.7247    0.4681 H         1 <0>         0.0771
     34 H13         7.1022    3.8069    1.4302 H         1 <0>         0.0775
     35 H14         6.7400    2.2436   -1.1663 H         1 <0>         0.0599
     36 H15         7.6059    3.7896   -0.9977 H         1 <0>         0.0670
     37 H16         9.1853    1.8780   -0.9778 H         1 <0>         0.0627
     38 H17         9.1919    2.7285    0.5859 H         1 <0>         0.0629
     39 H18         7.6233    0.1890   -0.0525 H         1 <0>         0.0623
     40 H19         9.1186    0.2712    0.9096 H         1 <0>         0.0638
     41 H20         7.9856    1.7522    2.5440 H         1 <0>         0.0699
     42 H21         7.1196    0.2063    2.3754 H         1 <0>         0.0867
     43 H22         5.1113    1.2936    3.2709 H         1 <0>         0.0685
     44 H23         5.8585    2.9075    3.3438 H         1 <0>         0.0496
     45 H24         3.4889    3.0353    3.0711 H         1 <0>         0.3778
@<TRIPOS>BOND
     1    1    6 ar
     2    1    2 ar
     3    1   23 1
     4    2    3 ar
     5    2   24 1
     6    3    4 ar
     7    3   25 1
     8    4   10 1
     9    4    5 ar
    10    5    6 ar
    11    5    7 1
    12    6   26 1
    13    7    8 1
    14    7   27 1
    15    7   28 1
    16    8    9 1
    17    8   29 1
    18    8   30 1
    19    9   10 1
    20    9   31 1
    21   10   11 1
    22   10   12 1
    23   12   13 2
    24   12   14 am
    25   14   15 1
    26   14   32 1
    27   15   20 1
    28   15   16 1
    29   15   21 1
    30   16   17 1
    31   16   33 1
    32   16   34 1
    33   17   18 1
    34   17   35 1
    35   17   36 1
    36   18   19 1
    37   18   37 1
    38   18   38 1
    39   19   20 1
    40   19   39 1
    41   19   40 1
    42   20   41 1
    43   20   42 1
    44   21   22 1
    45   21   43 1
    46   21   44 1
    47   22   45 1
@<TRIPOS>MOLECULE
ZINC49542565
   36    38     0     0     0
SMALL
USER_CHARGES

@<TRIPOS>ATOM
      1 C1         -0.0187    1.5258    0.0104 C.3       1 <0>        -0.1818
      2 C2          0.0021   -0.0041    0.0020 C.3       1 <0>         0.1514
      3 H1          0.5123   -0.3556   -0.8948 H         1 <0>         0.0956
      4 C3          0.7309   -0.5033    1.2229 C.ar      1 <0>        -0.1842
      5 C4          0.0228   -0.8532    2.3560 C.ar      1 <0>        -0.0697
      6 C5          0.6908   -1.3109    3.4768 C.ar      1 <0>        -0.1649
      7 C6          2.0695   -1.4203    3.4673 C.ar      1 <0>        -0.0727
      8 C7          2.7835   -1.0726    2.3378 C.ar      1 <0>        -0.1778
      9 C8          2.1151   -0.6174    1.2081 C.ar      1 <0>         0.2179
     10 N1          2.8338   -0.2698    0.0620 N.pl3     1 <0>        -0.7245
     11 C9          4.2938   -0.3908    0.0482 C.3       1 <0>         0.1706
     12 H2          4.7040   -0.1648    1.0324 H         1 <0>         0.1332
     13 C10         4.8909    0.5232   -0.9970 C.ar      1 <0>        -0.1379
     14 C11         4.8762    1.8898   -1.1637 C.ar      1 <0>        -0.0808
     15 C12         5.5274    2.4608   -2.2455 C.ar      1 <0>         0.0772
     16 C13         6.1903    1.6525   -3.1540 C.ar      1 <0>        -0.1036
     17 C14         6.2057    0.2834   -2.9871 C.ar      1 <0>        -0.1117
     18 C15         5.5524   -0.2971   -1.9017 C.ar      1 <0>         0.1513
     19 N2          5.4257   -1.6350   -1.5221 N.am      1 <0>        -0.6610
     20 C16         4.7067   -1.7790   -0.3925 C.2       1 <0>         0.5138
     21 O1          4.4390   -2.8217    0.1664 O.2       1 <0>        -0.4716
     22 F1          5.5154    3.8012   -2.4135 F         1 <0>        -0.1319
     23 O2         -1.3386   -0.4987    0.0122 O.3       1 <0>        -0.5550
     24 H3          1.0039    1.9031    0.0027 H         1 <0>         0.0662
     25 H4         -0.5459    1.8868   -0.8726 H         1 <0>         0.0674
     26 H5         -0.5289    1.8773    0.9072 H         1 <0>         0.0632
     27 H6         -1.0539   -0.7690    2.3667 H         1 <0>         0.1216
     28 H7          0.1347   -1.5832    4.3617 H         1 <0>         0.1215
     29 H8          2.5882   -1.7778    4.3446 H         1 <0>         0.1233
     30 H9          3.8601   -1.1580    2.3312 H         1 <0>         0.1206
     31 H10         2.3663    0.0517   -0.7247 H         1 <0>         0.4063
     32 H11         4.3576    2.5158   -0.4526 H         1 <0>         0.1450
     33 H12         6.6981    2.0966   -3.9974 H         1 <0>         0.1485
     34 H13         6.7247   -0.3403   -3.6998 H         1 <0>         0.1421
     35 H14         5.8119   -2.3759   -2.0148 H         1 <0>         0.4172
     36 H15        -1.8531   -0.2245    0.7836 H         1 <0>         0.3754
@<TRIPOS>BOND
     1    1    2 1
     2    1   24 1
     3    1   25 1
     4    1   26 1
     5    2    3 1
     6    2    4 1
     7    2   23 1
     8    4    9 ar
     9    4    5 ar
    10    5    6 ar
    11    5   27 1
    12    6    7 ar
    13    6   28 1
    14    7    8 ar
    15    7   29 1
    16    8    9 ar
    17    8   30 1
    18    9   10 1
    19   10   11 1
    20   10   31 1
    21   11   12 1
    22   11   20 1
    23   11   13 1
    24   13   18 ar
    25   13   14 ar
    26   14   15 ar
    27   14   32 1
    28   15   16 ar
    29   15   22 1
    30   16   17 ar
    31   16   33 1
    32   17   18 ar
    33   17   34 1
    34   18   19 1
    35   19   20 am
    36   19   35 1
    37   20   21 2
    38   23   36 1
@<TRIPOS>MOLECULE
ZINC02883290
   45    48     0     0     0
SMALL
USER_CHARGES
(2-ethoxy-5-nitro-phenyl)BLAHone
@<TRIPOS>ATOM
      1 C1         -4.8056    1.3046   -0.1074 C.3       1 <0>        -0.1552
      2 C2         -3.6040    2.2511   -0.0726 C.3       1 <0>         0.0474
      3 O1         -2.3965    1.4872   -0.0477 O.3       1 <0>        -0.2970
      4 C3         -1.2282    2.1807   -0.0152 C.ar      1 <0>         0.1781
      5 C4         -1.2438    3.5681   -0.0011 C.ar      1 <0>        -0.2040
      6 C5         -0.0550    4.2707    0.0261 C.ar      1 <0>        -0.0148
      7 C6          1.1501    3.5925    0.0452 C.ar      1 <0>        -0.0727
      8 C7          1.1681    2.2102    0.0375 C.ar      1 <0>        -0.0103
      9 C8         -0.0184    1.5028    0.0103 C.ar      1 <0>        -0.0955
     10 C9          0.0021   -0.0041    0.0020 C.3       1 <0>         0.0101
     11 H1         -1.0162   -0.3810    0.0975 H         1 <0>         0.1153
     12 C10         0.6058   -0.4974   -1.3134 C.3       1 <0>        -0.1337
     13 C11         0.8940   -1.9727   -1.2145 C.2       1 <0>         0.5258
     14 O2          0.7175   -2.6865   -2.1791 O.2       1 <0>        -0.5157
     15 N1          1.3455   -2.5035   -0.0657 N.am      1 <0>        -0.6615
     16 C12         1.4566   -1.7250    1.0905 C.ar      1 <0>         0.1765
     17 C13         0.8297   -0.5004    1.1589 C.ar      1 <0>        -0.1281
     18 C14         0.9639    0.2849    2.3150 C.ar      1 <0>        -0.0057
     19 C15         0.3642    1.5533    2.4074 C.ar      1 <0>        -0.1583
     20 C16         0.5159    2.2889    3.5422 C.ar      1 <0>        -0.1025
     21 C17         1.2584    1.8043    4.6175 C.ar      1 <0>        -0.1223
     22 C18         1.8530    0.5811    4.5642 C.ar      1 <0>        -0.0927
     23 C19         1.7181   -0.2083    3.4094 C.ar      1 <0>        -0.0705
     24 C20         2.3166   -1.4768    3.3208 C.ar      1 <0>        -0.0631
     25 C21         2.1826   -2.2113    2.1856 C.ar      1 <0>        -0.1430
     26 N2          2.4225    4.3478    0.0744 N.pl3     1 <0>         0.0342
     27 O3          3.4844    3.7515    0.0916 O.2       1 <0>        -0.1590
     28 O4          2.4078    5.5657    0.0811 O.3       1 <0>        -0.1606
     29 H2         -5.7266    1.8873   -0.1264 H         1 <0>         0.0849
     30 H3         -4.7515    0.6814   -1.0000 H         1 <0>         0.0703
     31 H4         -4.7948    0.6709    0.7794 H         1 <0>         0.0697
     32 H5         -3.6581    2.8743    0.8200 H         1 <0>         0.0713
     33 H6         -3.6148    2.8848   -0.9594 H         1 <0>         0.0720
     34 H7         -2.1846    4.0982   -0.0164 H         1 <0>         0.1571
     35 H8         -0.0665    5.3506    0.0329 H         1 <0>         0.1603
     36 H9          2.1105    1.6828    0.0525 H         1 <0>         0.1603
     37 H10        -0.0986   -0.3187   -2.1257 H         1 <0>         0.1160
     38 H11         1.5327    0.0408   -1.5117 H         1 <0>         0.1080
     39 H12         1.5982   -3.4396   -0.0381 H         1 <0>         0.4140
     40 H13        -0.2137    1.9419    1.5819 H         1 <0>         0.1508
     41 H14         0.0543    3.2628    3.6105 H         1 <0>         0.1184
     42 H15         1.3637    2.4084    5.5065 H         1 <0>         0.1242
     43 H16         2.4254    0.2188    5.4053 H         1 <0>         0.1301
     44 H17         2.8819   -1.8674    4.1541 H         1 <0>         0.1374
     45 H18         2.6438   -3.1861    2.1263 H         1 <0>         0.1340
@<TRIPOS>BOND
     1    1    2 1
     2    1   29 1
     3    1   30 1
     4    1   31 1
     5    2    3 1
     6    2   32 1
     7    2   33 1
     8    3    4 1
     9    4    9 ar
    10    4    5 ar
    11    5    6 ar
    12    5   34 1
    13    6    7 ar
    14    6   35 1
    15    7    8 ar
    16    7   26 1
    17    8    9 ar
    18    8   36 1
    19    9   10 1
    20   10   11 1
    21   10   17 1
    22   10   12 1
    23   12   13 1
    24   12   37 1
    25   12   38 1
    26   13   14 2
    27   13   15 am
    28   15   16 1
    29   15   39 1
    30   16   25 ar
    31   16   17 ar
    32   17   18 ar
    33   18   23 ar
    34   18   19 ar
    35   19   20 ar
    36   19   40 1
    37   20   21 ar
    38   20   41 1
    39   21   22 ar
    40   21   42 1
    41   22   23 ar
    42   22   43 1
    43   23   24 ar
    44   24   25 ar
    45   24   44 1
    46   25   45 1
    47   26   27 2
    48   26   28 1
@<TRIPOS>MOLECULE
ZINC20228723
   34    35     0     0     0
SMALL
USER_CHARGES
[4-[(E)-hydroxyiminomethyl]-2-methoxy-phenyl] 4-chlorobenzenesulfonate
@<TRIPOS>ATOM
      1 C1         -2.3913    1.2473    0.0201 C.3       1 <0>         0.0166
      2 O1         -1.2035    2.0418    0.0188 O.3       1 <0>        -0.2997
      3 C2         -0.0167    1.3779    0.0096 C.ar      1 <0>         0.1625
      4 C3          0.0021   -0.0041    0.0020 C.ar      1 <0>        -0.1681
      5 C4          1.2229   -0.6827   -0.0133 C.ar      1 <0>         0.0105
      6 C5          2.4191    0.0384   -0.0208 C.ar      1 <0>        -0.1063
      7 C6          2.3931    1.4168   -0.0131 C.ar      1 <0>        -0.0837
      8 C7          1.1804    2.0910    0.0020 C.ar      1 <0>         0.0388
      9 O2          1.1601    3.4498    0.0095 O.3       1 <0>        -0.6429
     10 S1          1.1642    4.0613    1.4032 S.o2      1 <0>         2.6734
     11 O3          0.9320    5.4533    1.2366 O.2       1 <0>        -0.9239
     12 O4          0.3295    3.2408    2.2091 O.2       1 <0>        -0.9414
     13 C8          2.7988    3.8960    2.0399 C.ar      1 <0>        -0.7024
     14 C9          3.1485    2.7702    2.7619 C.ar      1 <0>        -0.0030
     15 C10         4.4322    2.6374    3.2568 C.ar      1 <0>        -0.1313
     16 C11         5.3640    3.6367    3.0391 C.ar      1 <0>         0.0215
     17 C12         5.0117    4.7657    2.3212 C.ar      1 <0>        -0.1317
     18 C13         3.7294    4.8948    1.8221 C.ar      1 <0>        -0.0006
     19 Cl1         6.9746    3.4736    3.6659 Cl        1 <0>        -0.0496
     20 C14         1.2487   -2.1578   -0.0219 C.2       1 <0>         0.1249
     21 N1          2.3804   -2.7850   -0.0361 N.2       1 <0>        -0.3096
     22 O5          2.4052   -4.2007   -0.0444 O.3       1 <0>        -0.4296
     23 H1         -3.2726    1.9055    0.0278 H         1 <0>         0.1116
     24 H2         -2.4035    0.6076    0.9149 H         1 <0>         0.0669
     25 H3         -2.4120    0.6173   -0.8814 H         1 <0>         0.0642
     26 H4         -0.9250   -0.5580    0.0082 H         1 <0>         0.1537
     27 H5          3.3644   -0.4839   -0.0330 H         1 <0>         0.1514
     28 H6          3.3187    1.9732   -0.0193 H         1 <0>         0.1514
     29 H7          2.4198    1.9922    2.9355 H         1 <0>         0.1510
     30 H8          4.7065    1.7558    3.8170 H         1 <0>         0.1470
     31 H9          5.7388    5.5459    2.1507 H         1 <0>         0.1477
     32 H10         3.4544    5.7760    1.2614 H         1 <0>         0.1534
     33 H11         0.3059   -2.7244   -0.0162 H         1 <0>         0.1320
     34 H12         3.3673   -4.7339   -0.0565 H         1 <0>         0.4454
@<TRIPOS>BOND
     1    1    2 1
     2    1   23 1
     3    1   24 1
     4    1   25 1
     5    2    3 1
     6    3    8 ar
     7    3    4 ar
     8    4    5 ar
     9    4   26 1
    10    5    6 ar
    11    5   20 1
    12    6    7 ar
    13    6   27 1
    14    7    8 ar
    15    7   28 1
    16    8    9 1
    17    9   10 1
    18   10   11 2
    19   10   12 2
    20   10   13 1
    21   13   18 ar
    22   13   14 ar
    23   14   15 ar
    24   14   29 1
    25   15   16 ar
    26   15   30 1
    27   16   17 ar
    28   16   19 1
    29   17   18 ar
    30   17   31 1
    31   18   32 1
    32   20   21 2
    33   20   33 1
    34   21   22 1
    35   22   34 1
@<TRIPOS>MOLECULE
ZINC38743715
   40    43     0     0     0
SMALL
USER_CHARGES

@<TRIPOS>ATOM
      1 C1          0.6183    1.8628   -1.1905 C.3       1 <0>        -0.1240
      2 C2          0.5088    0.3732   -0.9903 C.ar      1 <0>        -0.0003
      3 C3          0.4858   -0.4750   -2.0558 C.ar      1 <0>        -0.1580
      4 C4          0.3839   -1.8581   -1.8459 C.ar      1 <0>         0.1417
      5 N1          0.3083   -2.3673   -0.6325 N.ar      1 <0>        -0.4921
      6 C5          0.3263   -1.5833    0.4512 C.ar      1 <0>         0.1455
      7 C6          0.4335   -0.1786    0.3052 C.ar      1 <0>        -0.1049
      8 C7          0.4568    0.6372    1.4467 C.ar      1 <0>        -0.0919
      9 C8          0.3817    0.0692    2.6825 C.ar      1 <0>        -0.1167
     10 C9          0.2823   -1.3124    2.8288 C.ar      1 <0>        -0.0912
     11 C10         0.2449   -2.1322    1.7424 C.ar      1 <0>        -0.0998
     12 S1          0.3556   -2.9397   -3.2366 S.3       1 <0>         0.0176
     13 C11         0.2178   -4.5933   -2.5036 C.3       1 <0>        -0.1586
     14 C12         0.1831   -5.6272   -3.5994 C.2       1 <0>         0.5404
     15 O1          0.2452   -5.2825   -4.7606 O.2       1 <0>        -0.4092
     16 N2          0.0830   -6.9350   -3.2891 N.am      1 <0>        -0.6229
     17 C13        -0.8987   -7.6588   -3.7914 C.2       1 <0>         0.3624
     18 C14        -1.9517   -7.0162   -4.5869 C.2       1 <0>        -0.1504
     19 C15        -2.9573   -7.7489   -5.1035 C.2       1 <0>         0.0271
     20 C16        -3.0059   -9.1961   -4.8737 C.2       1 <0>         0.1572
     21 N3         -3.8342  -10.1576   -5.2338 N.2       1 <0>        -0.4404
     22 C17        -3.3967  -11.3279   -4.7398 C.2       1 <0>         0.5522
     23 O2         -4.0202  -12.5154   -4.9278 O.3       1 <0>        -0.4418
     24 N4         -2.2885  -11.1758   -4.0527 N.2       1 <0>        -0.5898
     25 C18        -1.9528   -9.8533   -4.0756 C.2       1 <0>         0.2509
     26 C19        -0.9352   -9.1187   -3.5584 C.2       1 <0>        -0.2590
     27 H1          1.6694    2.1506   -1.2096 H         1 <0>         0.0856
     28 H2          0.1490    2.1379   -2.1351 H         1 <0>         0.0799
     29 H3          0.1155    2.3774   -0.3717 H         1 <0>         0.0784
     30 H4          0.5456   -0.0832   -3.0605 H         1 <0>         0.1442
     31 H5          0.5344    1.7097    1.3460 H         1 <0>         0.1342
     32 H6          0.3998    0.6982    3.5602 H         1 <0>         0.1308
     33 H7          0.2247   -1.7393    3.8191 H         1 <0>         0.1328
     34 H8          0.1668   -3.2015    1.8729 H         1 <0>         0.1353
     35 H9          1.0764   -4.7772   -1.8577 H         1 <0>         0.1407
     36 H10        -0.6984   -4.6553   -1.9164 H         1 <0>         0.1433
     37 H11         0.7329   -7.3440   -2.6964 H         1 <0>         0.4429
     38 H12        -1.9205   -5.9504   -4.7586 H         1 <0>         0.1691
     39 H13        -3.7290   -7.2695   -5.6875 H         1 <0>         0.1743
     40 H14        -0.1602   -9.5963   -2.9774 H         1 <0>         0.1643
@<TRIPOS>BOND
     1    1    2 1
     2    1   27 1
     3    1   28 1
     4    1   29 1
     5    2    7 ar
     6    2    3 ar
     7    3    4 ar
     8    3   30 1
     9    4    5 ar
    10    4   12 1
    11    5    6 ar
    12    6   11 ar
    13    6    7 ar
    14    7    8 ar
    15    8    9 ar
    16    8   31 1
    17    9   10 ar
    18    9   32 1
    19   10   11 ar
    20   10   33 1
    21   11   34 1
    22   12   13 1
    23   13   14 1
    24   13   35 1
    25   13   36 1
    26   14   15 2
    27   14   16 am
    28   16   17 2
    29   16   37 1
    30   17   26 1
    31   17   18 1
    32   18   19 2
    33   18   38 1
    34   19   20 1
    35   19   39 1
    36   20   25 1
    37   20   21 2
    38   21   22 1
    39   22   23 1
    40   22   24 2
    41   24   25 1
    42   25   26 2
    43   26   40 1
@<TRIPOS>MOLECULE
ZINC30530134
   41    42     0     0     0
SMALL
USER_CHARGES

@<TRIPOS>ATOM
      1 C1          2.0611   -1.9046    2.2304 C.3       1 <0>        -0.1584
      2 C2          0.9680   -1.7365    1.2067 C.ar      1 <0>         0.0893
      3 C3          0.9767   -2.5003    0.0543 C.ar      1 <0>        -0.0736
      4 C4         -0.0258   -2.3460   -0.8845 C.ar      1 <0>         0.0049
      5 C5         -1.0376   -1.4283   -0.6711 C.ar      1 <0>        -0.1403
      6 C6         -1.0468   -0.6654    0.4814 C.ar      1 <0>         0.0317
      7 C7         -0.0463   -0.8227    1.4225 C.ar      1 <0>        -0.6927
      8 S1         -0.0613    0.1456    2.8946 S.o2      1 <0>         2.6970
      9 O1         -1.1754    1.0217    2.7930 O.2       1 <0>        -0.9313
     10 O2          0.0996   -0.7598    3.9779 O.2       1 <0>        -0.9337
     11 N1          1.2934    1.0976    2.8682 N.pl3     1 <0>        -1.0546
     12 C8          1.4118    2.1178    1.9216 C.ar      1 <0>         0.1596
     13 C9          1.0693    1.8808    0.5961 C.ar      1 <0>        -0.1731
     14 C10         1.1871    2.8917   -0.3370 C.ar      1 <0>        -0.0832
     15 C11         1.6458    4.1389    0.0464 C.ar      1 <0>        -0.1230
     16 C12         1.9879    4.3780    1.3645 C.ar      1 <0>        -0.0475
     17 C13         1.8666    3.3730    2.3043 C.ar      1 <0>        -0.1262
     18 C14         2.4881    5.7383    1.7774 C.3       1 <0>        -0.0600
     19 C15         3.7619    6.0714    0.9982 C.3       1 <0>        -0.1455
     20 C16         1.4169    6.7885    1.4766 C.3       1 <0>        -0.1465
     21 N2          2.0599   -3.4828   -0.1742 N.pl3     1 <0>         0.0363
     22 O3          2.1373   -4.0620   -1.2326 O.2       1 <0>        -0.1536
     23 O4          2.8673   -3.7061    0.6975 O.3       1 <0>        -0.1483
     24 H1          1.8293   -2.7538    2.8733 H         1 <0>         0.1184
     25 H2          3.0097   -2.0810    1.7234 H         1 <0>         0.1175
     26 H3          2.1348   -1.0007    2.8350 H         1 <0>         0.0670
     27 H4         -0.0187   -2.9422   -1.7851 H         1 <0>         0.1645
     28 H5         -1.8206   -1.3073   -1.4051 H         1 <0>         0.1620
     29 H6         -1.8369    0.0518    0.6479 H         1 <0>         0.1662
     30 H7          2.0047    0.9467    3.5102 H         1 <0>         0.4304
     31 H8          0.7118    0.9069    0.2960 H         1 <0>         0.1223
     32 H9          0.9211    2.7082   -1.3676 H         1 <0>         0.1299
     33 H10         1.7373    4.9278   -0.6856 H         1 <0>         0.1283
     34 H11         2.1294    3.5618    3.3347 H         1 <0>         0.1319
     35 H12         2.7055    5.7366    2.8455 H         1 <0>         0.0806
     36 H13         3.5445    6.0730   -0.0699 H         1 <0>         0.0581
     37 H14         4.1238    7.0552    1.2968 H         1 <0>         0.0611
     38 H15         4.5251    5.3232    1.2124 H         1 <0>         0.0567
     39 H16         1.7787    7.7724    1.7753 H         1 <0>         0.0611
     40 H17         1.1995    6.7902    0.4085 H         1 <0>         0.0583
     41 H18         0.5094    6.5512    2.0318 H         1 <0>         0.0582
@<TRIPOS>BOND
     1    1    2 1
     2    1   24 1
     3    1   25 1
     4    1   26 1
     5    2    7 ar
     6    2    3 ar
     7    3    4 ar
     8    3   21 1
     9    4    5 ar
    10    4   27 1
    11    5    6 ar
    12    5   28 1
    13    6    7 ar
    14    6   29 1
    15    7    8 1
    16    8    9 2
    17    8   10 2
    18    8   11 1
    19   11   12 1
    20   11   30 1
    21   12   17 ar
    22   12   13 ar
    23   13   14 ar
    24   13   31 1
    25   14   15 ar
    26   14   32 1
    27   15   16 ar
    28   15   33 1
    29   16   17 ar
    30   16   18 1
    31   17   34 1
    32   18   19 1
    33   18   20 1
    34   18   35 1
    35   19   36 1
    36   19   37 1
    37   19   38 1
    38   20   39 1
    39   20   40 1
    40   20   41 1
    41   21   22 2
    42   21   23 1
@<TRIPOS>MOLECULE
ZINC64787828
   48    51     0     0     0
SMALL
USER_CHARGES

@<TRIPOS>ATOM
      1 C1         -1.5230   -0.4349    0.2779 C.3       1 <0>        -0.1527
      2 C2         -0.0675    0.0108    0.1239 C.3       1 <0>        -0.1514
      3 C3          0.7225   -0.3871    1.3723 C.3       1 <0>         0.0267
      4 H1          0.2462    0.0402    2.2547 H         1 <0>         0.1337
      5 C4          0.7472   -1.9122    1.4948 C.3       1 <0>        -0.1386
      6 C5          1.5385   -2.3056    2.7455 C.3       1 <0>        -0.1363
      7 C6          2.9456   -1.7076    2.6564 C.3       1 <0>        -0.1431
      8 C7          2.8394   -0.1901    2.4908 C.3       1 <0>        -0.0229
      9 N1          2.0955    0.1204    1.2641 N.4       1 <0>        -0.3727
     10 C8          2.0640    1.5759    1.0681 C.3       1 <0>         0.0603
     11 C9          3.4587    2.0761    0.7931 C.2       1 <0>         0.1688
     12 C10         3.7544    2.6290   -0.4206 C.2       1 <0>        -0.3680
     13 C11         5.0629    3.0896   -0.6561 C.2       1 <0>         0.5470
     14 O1          5.3633    3.5894   -1.7278 O.2       1 <0>        -0.5462
     15 N2          5.9764    2.9680    0.3251 N.am      1 <0>        -0.3761
     16 C12         5.6303    2.4061    1.5250 C.2       1 <0>         0.4869
     17 N3          4.3911    1.9814    1.7341 N.2       1 <0>        -0.5832
     18 N4          6.7191    2.4091    2.3119 N.2       1 <0>        -0.5462
     19 C13         7.7391    2.9440    1.6737 C.2       1 <0>         0.2840
     20 N5          7.3314    3.3142    0.4190 N.2       1 <0>        -0.3373
     21 C14         9.0992    3.1161    2.2202 C.ar      1 <0>        -0.0029
     22 C15        10.0984    3.7062    1.4421 C.ar      1 <0>        -0.0696
     23 C16        11.3670    3.8641    1.9584 C.ar      1 <0>        -0.1148
     24 C17        11.6519    3.4391    3.2458 C.ar      1 <0>        -0.0240
     25 C18        10.6656    2.8532    4.0224 C.ar      1 <0>        -0.1168
     26 C19         9.3916    2.6948    3.5198 C.ar      1 <0>        -0.0633
     27 Cl1        13.2519    3.6410    3.8884 Cl        1 <0>        -0.0700
     28 H2         -1.9321   -0.0272    1.2023 H         1 <0>         0.0646
     29 H3         -2.1058   -0.0717   -0.5687 H         1 <0>         0.0732
     30 H4         -1.5682   -1.5235    0.3097 H         1 <0>         0.0657
     31 H5          0.3692   -0.4704   -0.7512 H         1 <0>         0.0872
     32 H6         -0.0302    1.0931   -0.0000 H         1 <0>         0.0901
     33 H7         -0.2729   -2.2874    1.5766 H         1 <0>         0.1079
     34 H8          1.2236   -2.3405    0.6130 H         1 <0>         0.0851
     35 H9          1.0344   -1.9206    3.6319 H         1 <0>         0.0787
     36 H10         1.6073   -3.3917    2.8067 H         1 <0>         0.0876
     37 H11         3.4968   -1.9366    3.5684 H         1 <0>         0.1075
     38 H12         3.4676   -2.1317    1.7986 H         1 <0>         0.0810
     39 H13         2.3175    0.2329    3.3491 H         1 <0>         0.1214
     40 H14         3.8394    0.2388    2.4272 H         1 <0>         0.1699
     41 H15         1.4190    1.8148    0.2225 H         1 <0>         0.1425
     42 H16         1.6768    2.0552    1.9672 H         1 <0>         0.1387
     43 H17         2.9970    2.7109   -1.1861 H         1 <0>         0.1448
     44 H18         9.8776    4.0377    0.4382 H         1 <0>         0.1420
     45 H19        12.1403    4.3198    1.3579 H         1 <0>         0.1385
     46 H20        10.8940    2.5239    5.0253 H         1 <0>         0.1383
     47 H21         8.6223    2.2423    4.1280 H         1 <0>         0.1453
     48 H22         2.5521   -0.3133    0.4757 H         1 <0>         0.4188
@<TRIPOS>BOND
     1    1    2 1
     2    1   28 1
     3    1   29 1
     4    1   30 1
     5    2    3 1
     6    2   31 1
     7    2   32 1
     8    3    4 1
     9    3    9 1
    10    3    5 1
    11    5    6 1
    12    5   33 1
    13    5   34 1
    14    6    7 1
    15    6   35 1
    16    6   36 1
    17    7    8 1
    18    7   37 1
    19    7   38 1
    20    8    9 1
    21    8   39 1
    22    8   40 1
    23    9   10 1
    24    9   48 1
    25   10   11 1
    26   10   41 1
    27   10   42 1
    28   11   17 1
    29   11   12 2
    30   12   13 1
    31   12   43 1
    32   13   14 2
    33   13   15 am
    34   15   20 1
    35   15   16 1
    36   16   17 2
    37   16   18 1
    38   18   19 2
    39   19   20 1
    40   19   21 1
    41   21   26 ar
    42   21   22 ar
    43   22   23 ar
    44   22   44 1
    45   23   24 ar
    46   23   45 1
    47   24   25 ar
    48   24   27 1
    49   25   26 ar
    50   25   46 1
    51   26   47 1
@<TRIPOS>MOLECULE
ZINC04941988
   43    45     0     0     0
SMALL
USER_CHARGES
2-chloro-N-[4-(1,1-dioxothiazinan-2-yl)phenyl]-4-nitro-benzamide
@<TRIPOS>ATOM
      1 C1          2.2949   -0.2127   -0.2012 C.ar      1 <0>        -0.1109
      2 C2          3.4688   -0.9311   -0.3103 C.ar      1 <0>        -0.1315
      3 C3          4.6901   -0.2697   -0.3124 C.ar      1 <0>         0.1685
      4 C4          4.7301    1.1148   -0.2102 C.ar      1 <0>        -0.1311
      5 C5          3.5558    1.8335   -0.1065 C.ar      1 <0>        -0.0805
      6 C6          2.3348    1.1721   -0.1044 C.ar      1 <0>         0.1150
      7 N1          1.1435    1.9013    0.0014 N.am      1 <0>        -0.6615
      8 C7          1.0426    3.1147   -0.5765 C.2       1 <0>         0.5494
      9 O1          2.0110    3.6130   -1.1171 O.2       1 <0>        -0.4773
     10 C8         -0.2431    3.8420   -0.5478 C.ar      1 <0>        -0.0802
     11 C9         -1.3573    3.2728    0.0721 C.ar      1 <0>        -0.0732
     12 C10        -2.5542    3.9571    0.0958 C.ar      1 <0>        -0.0578
     13 C11        -2.6536    5.2061   -0.4926 C.ar      1 <0>        -0.0085
     14 C12        -1.5551    5.7769   -1.1085 C.ar      1 <0>        -0.0551
     15 C13        -0.3483    5.1050   -1.1357 C.ar      1 <0>         0.0097
     16 Cl1         1.0322    5.8256   -1.9031 Cl        1 <0>         0.0099
     17 N2         -3.9418    5.9344   -0.4619 N.pl3     1 <0>         0.0214
     18 O2         -4.9112    5.4345    0.0803 O.2       1 <0>        -0.1415
     19 O3         -4.0325    7.0336   -0.9787 O.3       1 <0>        -0.1425
     20 N3          5.8798   -0.9980   -0.4180 N.pl3     1 <0>        -0.9364
     21 C14         5.9488   -2.4038    0.0079 C.3       1 <0>         0.1010
     22 C15         6.4093   -3.2689   -1.1637 C.3       1 <0>        -0.1596
     23 C16         7.8346   -2.9071   -1.5745 C.3       1 <0>        -0.1133
     24 C17         7.8472   -1.5267   -2.2412 C.3       1 <0>        -0.6170
     25 S1          7.2600   -0.3027   -1.0361 S.o2      1 <0>         2.5926
     26 O4          6.8156    0.8717   -1.7013 O.2       1 <0>        -0.9412
     27 O5          8.1575   -0.2237    0.0627 O.2       1 <0>        -0.9421
     28 H1          1.3454   -0.7273   -0.1951 H         1 <0>         0.1319
     29 H2          3.4375   -2.0078   -0.3898 H         1 <0>         0.1343
     30 H3          5.6797    1.6292   -0.2115 H         1 <0>         0.1389
     31 H4          3.5869    2.9101   -0.0273 H         1 <0>         0.1466
     32 H5          0.3911    1.5330    0.4905 H         1 <0>         0.4100
     33 H6         -1.2817    2.2987    0.5324 H         1 <0>         0.1602
     34 H7         -3.4165    3.5175    0.5751 H         1 <0>         0.1694
     35 H8         -1.6395    6.7517   -1.5657 H         1 <0>         0.1729
     36 H9          6.6571   -2.4998    0.8309 H         1 <0>         0.0891
     37 H10         4.9630   -2.7326    0.3369 H         1 <0>         0.1018
     38 H11         6.3757   -4.3182   -0.8702 H         1 <0>         0.0997
     39 H12         5.7414   -3.1115   -2.0105 H         1 <0>         0.0815
     40 H13         8.4729   -2.8889   -0.6911 H         1 <0>         0.0861
     41 H14         8.2098   -3.6520   -2.2763 H         1 <0>         0.0932
     42 H15         8.8617   -1.2788   -2.5535 H         1 <0>         0.1397
     43 H16         7.1869   -1.5316   -3.1084 H         1 <0>         0.1385
@<TRIPOS>BOND
     1    1    6 ar
     2    1    2 ar
     3    1   28 1
     4    2    3 ar
     5    2   29 1
     6    3    4 ar
     7    3   20 1
     8    4    5 ar
     9    4   30 1
    10    5    6 ar
    11    5   31 1
    12    6    7 1
    13    7    8 am
    14    7   32 1
    15    8    9 2
    16    8   10 1
    17   10   15 ar
    18   10   11 ar
    19   11   12 ar
    20   11   33 1
    21   12   13 ar
    22   12   34 1
    23   13   14 ar
    24   13   17 1
    25   14   15 ar
    26   14   35 1
    27   15   16 1
    28   17   18 2
    29   17   19 1
    30   20   25 1
    31   20   21 1
    32   21   22 1
    33   21   36 1
    34   21   37 1
    35   22   23 1
    36   22   38 1
    37   22   39 1
    38   23   24 1
    39   23   40 1
    40   23   41 1
    41   24   25 1
    42   24   42 1
    43   24   43 1
    44   25   26 2
    45   25   27 2
@<TRIPOS>MOLECULE
ZINC10049544
   55    58     0     0     0
SMALL
USER_CHARGES
3-(4-ethylphenyl)aminopropyl-trimethyl-BLAHdione
@<TRIPOS>ATOM
      1 C1         -0.3329   12.8312    4.0270 C.3       1 <0>        -0.1472
      2 C2         -1.4940   11.8387    3.9384 C.3       1 <0>        -0.0793
      3 C3         -0.9561   10.4607    3.6508 C.ar      1 <0>        -0.1381
      4 C4         -0.6199    9.6195    4.6956 C.ar      1 <0>        -0.0695
      5 C5         -0.1271    8.3558    4.4355 C.ar      1 <0>        -0.1911
      6 C6          0.0306    7.9301    3.1227 C.ar      1 <0>         0.2093
      7 C7         -0.3032    8.7796    2.0756 C.ar      1 <0>        -0.1937
      8 C8         -0.8004   10.0401    2.3427 C.ar      1 <0>        -0.0701
      9 N1          0.5292    6.6529    2.8561 N.pl3     1 <0>        -0.7505
     10 C9          0.6948    6.2056    1.4710 C.3       1 <0>         0.1315
     11 C10         1.2529    4.7811    1.4583 C.3       1 <0>        -0.1510
     12 C11         1.4259    4.3139    0.0117 C.3       1 <0>         0.1264
     13 N2          1.9602    2.9499   -0.0004 N.pl3     1 <0>        -0.4554
     14 C12         3.2969    2.5997   -0.0148 C.2       1 <0>         0.0735
     15 C13         3.3779    1.2724   -0.0237 C.2       1 <0>        -0.0150
     16 N3          2.0932    0.7581   -0.0138 N.pl3     1 <0>        -0.3504
     17 C14         1.2235    1.7950    0.0000 C.2       1 <0>         0.4435
     18 N4         -0.0160    1.3261    0.0093 N.2       1 <0>        -0.5073
     19 C15         0.0021   -0.0041    0.0020 C.2       1 <0>         0.3779
     20 C16         1.3375   -0.4047   -0.0129 C.2       1 <0>        -0.1884
     21 C17         1.6414   -1.7758   -0.0228 C.2       1 <0>         0.5979
     22 O1          2.8015   -2.1491   -0.0354 O.2       1 <0>        -0.5205
     23 N5          0.6363   -2.6755   -0.0176 N.am      1 <0>        -0.5538
     24 C18        -0.6483   -2.2802   -0.0032 C.2       1 <0>         0.7105
     25 O2         -1.5272   -3.1206    0.0010 O.2       1 <0>        -0.5312
     26 N6         -0.9862   -0.9768    0.0062 N.am      1 <0>        -0.5098
     27 C19        -2.3981   -0.5864    0.0218 C.3       1 <0>         0.0888
     28 C20         0.9499   -4.1065   -0.0274 C.3       1 <0>         0.0848
     29 C21         4.4613    3.5563   -0.0196 C.3       1 <0>        -0.0848
     30 H1         -0.7220   13.8279    4.2350 H         1 <0>         0.0554
     31 H2          0.3421   12.5301    4.8281 H         1 <0>         0.0540
     32 H3          0.2083   12.8425    3.0809 H         1 <0>         0.0540
     33 H4         -2.1690   12.1398    3.1372 H         1 <0>         0.0676
     34 H5         -2.0353   11.8274    4.8845 H         1 <0>         0.0676
     35 H6         -0.7430    9.9509    5.7160 H         1 <0>         0.1199
     36 H7          0.1350    7.6992    5.2520 H         1 <0>         0.1183
     37 H8         -0.1776    8.4534    1.0537 H         1 <0>         0.1190
     38 H9         -1.0640   10.6995    1.5290 H         1 <0>         0.1195
     39 H10         0.7657    6.0621    3.5882 H         1 <0>         0.3996
     40 H11         1.3863    6.8713    0.9544 H         1 <0>         0.0637
     41 H12        -0.2710    6.2220    0.9659 H         1 <0>         0.0647
     42 H13         0.5614    4.1154    1.9748 H         1 <0>         0.0809
     43 H14         2.2186    4.7647    1.9634 H         1 <0>         0.0793
     44 H15         2.1174    4.9796   -0.5049 H         1 <0>         0.1060
     45 H16         0.4601    4.3303   -0.4934 H         1 <0>         0.1051
     46 H17         4.2902    0.6947   -0.0357 H         1 <0>         0.1949
     47 H18        -2.7581   -0.4840   -1.0019 H         1 <0>         0.0744
     48 H19        -2.9806   -1.3501    0.5371 H         1 <0>         0.0951
     49 H20        -2.5062    0.3655    0.5418 H         1 <0>         0.0918
     50 H21         1.0373   -4.4663    0.9978 H         1 <0>         0.0756
     51 H22         0.1535   -4.6495   -0.5364 H         1 <0>         0.0958
     52 H23         1.8922   -4.2683   -0.5509 H         1 <0>         0.0942
     53 H24         4.7515    3.7806    1.0069 H         1 <0>         0.0887
     54 H25         5.3023    3.1025   -0.5440 H         1 <0>         0.0968
     55 H26         4.1724    4.4778   -0.5251 H         1 <0>         0.0812
@<TRIPOS>BOND
     1    1    2 1
     2    1   30 1
     3    1   31 1
     4    1   32 1
     5    2    3 1
     6    2   33 1
     7    2   34 1
     8    3    8 ar
     9    3    4 ar
    10    4    5 ar
    11    4   35 1
    12    5    6 ar
    13    5   36 1
    14    6    7 ar
    15    6    9 1
    16    7    8 ar
    17    7   37 1
    18    8   38 1
    19    9   10 1
    20    9   39 1
    21   10   11 1
    22   10   40 1
    23   10   41 1
    24   11   12 1
    25   11   42 1
    26   11   43 1
    27   12   13 1
    28   12   44 1
    29   12   45 1
    30   13   17 1
    31   13   14 1
    32   14   15 2
    33   14   29 1
    34   15   16 1
    35   15   46 1
    36   16   20 1
    37   16   17 1
    38   17   18 2
    39   18   19 1
    40   19   26 1
    41   19   20 2
    42   20   21 1
    43   21   22 2
    44   21   23 am
    45   23   24 am
    46   23   28 1
    47   24   25 2
    48   24   26 am
    49   26   27 1
    50   27   47 1
    51   27   48 1
    52   27   49 1
    53   28   50 1
    54   28   51 1
    55   28   52 1
    56   29   53 1
    57   29   54 1
    58   29   55 1
@<TRIPOS>MOLECULE
ZINC19808585
   42    44     0     0     0
SMALL
USER_CHARGES
N-[(3,5-dichlorophenyl)methyleneamino]-2-[(3R,7R)-5,7-dimethyl-4,6-dioxo-3,7-dihydropyrazolo[5,4-d]pyridin-3-yl]acetamide
@<TRIPOS>ATOM
      1 C1         -2.8365    4.4610   -1.1946 C.3       1 <0>        -0.1381
      2 C2         -2.8235    2.9654   -1.5170 C.3       1 <0>        -0.0554
      3 H1         -3.7671    2.4324   -1.3284 H         1 <0>         0.1422
      4 C3         -1.8271    2.3003   -0.5910 C.2       1 <0>         0.0448
      5 C4         -0.8048    1.6168   -1.1653 C.2       1 <0>        -0.2006
      6 C5         -0.0127    1.0858    0.0080 C.3       1 <0>         0.0110
      7 H2          0.0686   -0.0111    0.0217 H         1 <0>         0.1785
      8 N1         -0.7630    1.5911    1.1720 N.2       1 <0>        -0.0799
      9 N2         -1.7283    2.2370    0.7555 N.2       1 <0>        -0.1549
     10 C6          1.4115    1.6448   -0.0026 C.3       1 <0>        -0.1010
     11 C7          2.1930    1.0504    1.1406 C.2       1 <0>         0.5346
     12 O1          1.6629    0.2575    1.8902 O.2       1 <0>        -0.4821
     13 N3          3.4808    1.3997    1.3302 N.am      1 <0>        -0.5918
     14 N4          4.2073    0.8471    2.3930 N.2       1 <0>        -0.2127
     15 C8          5.4472    1.1833    2.5756 C.2       1 <0>         0.1029
     16 C9          6.2120    0.6016    3.6944 C.ar      1 <0>        -0.0269
     17 C10         5.6030   -0.3073    4.5627 C.ar      1 <0>        -0.0687
     18 C11         6.3261   -0.8522    5.6049 C.ar      1 <0>        -0.0272
     19 C12         7.6490   -0.4913    5.7969 C.ar      1 <0>        -0.0883
     20 C13         8.2571    0.4132    4.9429 C.ar      1 <0>        -0.0276
     21 C14         7.5468    0.9614    3.8937 C.ar      1 <0>        -0.0788
     22 Cl1         9.9162    0.8591    5.1923 Cl        1 <0>        -0.0489
     23 Cl2         5.5730   -1.9870    6.6814 Cl        1 <0>        -0.0474
     24 C15        -0.6771    1.5248   -2.6110 C.2       1 <0>         0.5872
     25 O2          0.2558    0.8991   -3.0760 O.2       1 <0>        -0.4790
     26 N5         -1.5486    2.1064   -3.4505 N.am      1 <0>        -0.5631
     27 C16        -2.6039    2.8145   -3.0059 C.2       1 <0>         0.5360
     28 O3         -3.3713    3.3270   -3.7922 O.2       1 <0>        -0.4685
     29 C17        -1.3454    1.9660   -4.8945 C.3       1 <0>         0.0589
     30 H3         -2.9949    4.6020   -0.1152 H         1 <0>         0.0896
     31 H4         -3.6499    4.9491   -1.7515 H         1 <0>         0.0873
     32 H5         -1.8740    4.9071   -1.4853 H         1 <0>         0.0671
     33 H6          1.8997    1.3866   -0.9539 H         1 <0>         0.1292
     34 H7          1.3768    2.7388    0.1066 H         1 <0>         0.1090
     35 H8          3.9615    2.1187    0.6505 H         1 <0>         0.4084
     36 H9          5.9279    1.9022    1.8959 H         1 <0>         0.1332
     37 H10         4.5699   -0.5862    4.4167 H         1 <0>         0.1531
     38 H11         8.2091   -0.9173    6.6162 H         1 <0>         0.1483
     39 H12         8.0220    1.6673    3.2286 H         1 <0>         0.1473
     40 H13        -2.1440    2.4996   -5.4307 H         1 <0>         0.1054
     41 H14        -1.3698    0.9004   -5.1663 H         1 <0>         0.0834
     42 H15        -0.3698    2.3926   -5.1707 H         1 <0>         0.0834
@<TRIPOS>BOND
     1    1    2 1
     2    1   30 1
     3    1   31 1
     4    1   32 1
     5    2    3 1
     6    2   27 1
     7    2    4 1
     8    4    9 1
     9    4    5 2
    10    5    6 1
    11    5   24 1
    12    6    7 1
    13    6    8 1
    14    6   10 1
    15    8    9 2
    16   10   11 1
    17   10   33 1
    18   10   34 1
    19   11   12 2
    20   11   13 am
    21   13   14 1
    22   13   35 1
    23   14   15 2
    24   15   16 1
    25   15   36 1
    26   16   21 ar
    27   16   17 ar
    28   17   18 ar
    29   17   37 1
    30   18   19 ar
    31   18   23 1
    32   19   20 ar
    33   19   38 1
    34   20   21 ar
    35   20   22 1
    36   21   39 1
    37   24   25 2
    38   24   26 am
    39   26   27 am
    40   26   29 1
    41   27   28 2
    42   29   40 1
    43   29   41 1
    44   29   42 1
@<TRIPOS>MOLECULE
ZINC33792758
   53    57     0     0     0
SMALL
USER_CHARGES
(4-oxo-1,2,3-benzotriazin-3-yl)methyl 2-(adamantane-1-carbonylamino)acetate
@<TRIPOS>ATOM
      1 C1        -12.6720    6.2797    2.2620 C.ar      1 <0>        -0.0975
      2 C2        -11.7281    7.2473    2.5804 C.ar      1 <0>        -0.0817
      3 C3        -10.4864    6.8913    3.0558 C.ar      1 <0>        -0.0651
      4 C4        -10.1688    5.5407    3.2218 C.ar      1 <0>         0.0545
      5 C5        -11.1313    4.5600    2.8974 C.ar      1 <0>        -0.1516
      6 C6        -12.3830    4.9418    2.4178 C.ar      1 <0>        -0.0502
      7 C7        -10.7728    3.1453    3.0808 C.2       1 <0>         0.5334
      8 O1        -11.5595    2.2540    2.8184 O.2       1 <0>        -0.4904
      9 N1         -9.5331    2.8735    3.5526 N.am      1 <0>        -0.4805
     10 N2         -8.6526    3.9169    3.8504 N.2       1 <0>         0.1026
     11 N3         -8.9555    5.1537    3.6882 N.2       1 <0>        -0.1903
     12 C8         -9.1165    1.4839    3.7569 C.3       1 <0>         0.2943
     13 O2         -8.5008    0.9797    2.5423 O.3       1 <0>        -0.3524
     14 C9         -7.2223    1.3226    2.3195 C.2       1 <0>         0.4561
     15 O3         -6.6370    2.0209    3.1131 O.2       1 <0>        -0.4787
     16 C10        -6.5170    0.8366    1.0797 C.3       1 <0>         0.1277
     17 N4         -5.1426    1.3437    1.0693 N.am      1 <0>        -0.7362
     18 C11        -4.3180    1.0349    0.0488 C.2       1 <0>         0.5305
     19 O4         -4.7139    0.3372   -0.8608 O.2       1 <0>        -0.5373
     20 C12        -2.9042    1.5565    0.0381 C.3       1 <0>        -0.0643
     21 C13        -2.1881    1.0631   -1.2207 C.3       1 <0>        -0.0886
     22 C14        -0.7527    1.5927   -1.2315 C.3       1 <0>        -0.0869
     23 C15        -0.0127    1.0858    0.0080 C.3       1 <0>        -0.1113
     24 C16        -0.7288    1.5792    1.2668 C.3       1 <0>        -0.0841
     25 C17        -2.1642    1.0497    1.2777 C.3       1 <0>        -0.1013
     26 C18        -0.7496    3.1091    1.2752 C.3       1 <0>        -0.1110
     27 C19        -1.4896    3.6159    0.0357 C.3       1 <0>        -0.0839
     28 C20        -0.7734    3.1225   -1.2231 C.3       1 <0>        -0.1114
     29 C21        -2.9250    3.0863    0.0466 C.3       1 <0>        -0.1016
     30 H1        -13.6407    6.5785    1.8896 H         1 <0>         0.1448
     31 H2        -11.9711    8.2918    2.4530 H         1 <0>         0.1462
     32 H3         -9.7604    7.6528    3.2993 H         1 <0>         0.1522
     33 H4        -13.1210    4.1937    2.1686 H         1 <0>         0.1486
     34 H5         -8.3914    1.4362    4.5827 H         1 <0>         0.1223
     35 H6         -9.9952    0.8703    4.0046 H         1 <0>         0.1576
     36 H7         -6.5021   -0.2633    1.0737 H         1 <0>         0.1147
     37 H8         -7.0490    1.2009    0.1885 H         1 <0>         0.1101
     38 H9         -4.7836    1.9765    1.8943 H         1 <0>         0.4355
     39 H10        -2.1732   -0.0368   -1.2268 H         1 <0>         0.0702
     40 H11        -2.7201    1.4275   -2.1119 H         1 <0>         0.0697
     41 H12        -0.2378    1.2380   -2.1365 H         1 <0>         0.0748
     42 H13         0.0022   -0.0141    0.0019 H         1 <0>         0.0635
     43 H14         1.0193    1.4665    0.0002 H         1 <0>         0.0650
     44 H15        -0.1967    1.2147    2.1579 H         1 <0>         0.0754
     45 H16        -2.6791    1.4045    2.1827 H         1 <0>         0.0681
     46 H17        -2.1493   -0.0502    1.2718 H         1 <0>         0.0687
     47 H18        -1.2645    3.4638    2.1802 H         1 <0>         0.0648
     48 H19         0.2824    3.4899    1.2674 H         1 <0>         0.0658
     49 H20        -1.5046    4.7158    0.0417 H         1 <0>         0.0752
     50 H21         0.2586    3.5032   -1.2309 H         1 <0>         0.0651
     51 H22        -1.3053    3.4869   -2.1143 H         1 <0>         0.0632
     52 H23        -3.4571    3.4507   -0.8445 H         1 <0>         0.0679
     53 H24        -3.4399    3.4410    0.9516 H         1 <0>         0.0681
@<TRIPOS>BOND
     1    1    6 ar
     2    1    2 ar
     3    1   30 1
     4    2    3 ar
     5    2   31 1
     6    3    4 ar
     7    3   32 1
     8    4   11 1
     9    4    5 ar
    10    5    6 ar
    11    5    7 1
    12    6   33 1
    13    7    8 2
    14    7    9 am
    15    9   10 1
    16    9   12 1
    17   10   11 2
    18   12   13 1
    19   12   34 1
    20   12   35 1
    21   13   14 1
    22   14   15 2
    23   14   16 1
    24   16   17 1
    25   16   36 1
    26   16   37 1
    27   17   18 am
    28   17   38 1
    29   18   19 2
    30   18   20 1
    31   20   25 1
    32   20   29 1
    33   20   21 1
    34   21   22 1
    35   21   39 1
    36   21   40 1
    37   22   28 1
    38   22   23 1
    39   22   41 1
    40   23   24 1
    41   23   42 1
    42   23   43 1
    43   24   25 1
    44   24   26 1
    45   24   44 1
    46   25   45 1
    47   25   46 1
    48   26   27 1
    49   26   47 1
    50   26   48 1
    51   27   28 1
    52   27   29 1
    53   27   49 1
    54   28   50 1
    55   28   51 1
    56   29   52 1
    57   29   53 1
@<TRIPOS>MOLECULE
ZINC32074212
   52    55     0     0     0
SMALL
USER_CHARGES

@<TRIPOS>ATOM
      1 C1         -0.0187    1.5258    0.0104 C.3       1 <0>        -0.1505
      2 C2          0.0021   -0.0041    0.0020 C.3       1 <0>        -0.1246
      3 C3          0.7182   -0.4975   -1.2568 C.3       1 <0>         0.0585
      4 O1          0.7376   -1.9263   -1.2646 O.3       1 <0>        -0.3164
      5 C4          1.3413   -2.5294   -2.3224 C.ar      1 <0>         0.1330
      6 C5          1.9085   -1.7616   -3.3291 C.ar      1 <0>        -0.2074
      7 C6          2.5220   -2.3770   -4.4030 C.ar      1 <0>        -0.0671
      8 C7          2.5707   -3.7569   -4.4752 C.ar      1 <0>        -0.1200
      9 C8          2.0057   -4.5243   -3.4734 C.ar      1 <0>        -0.0712
     10 C9          1.3965   -3.9137   -2.3944 C.ar      1 <0>        -0.1478
     11 C10         3.2402   -4.4256   -5.6481 C.3       1 <0>         0.0502
     12 H1          3.6252   -3.6707   -6.3337 H         1 <0>         0.1102
     13 C11         2.2351   -5.3260   -6.3769 C.3       1 <0>        -0.1082
     14 C12         2.0110   -6.6118   -5.6358 C.2       1 <0>         0.4100
     15 N1          2.9341   -7.2136   -4.9466 N.2       1 <0>        -0.5488
     16 C13         4.1648   -6.6362   -4.8399 C.2       1 <0>         0.3273
     17 C14         4.3693   -5.2993   -5.1628 C.2       1 <0>        -0.2841
     18 C15         5.7041   -5.0083   -4.9532 C.2       1 <0>         0.1287
     19 N2          6.3018   -6.0920   -4.5121 N.2       1 <0>        -0.2842
     20 N3          5.3534   -7.1294   -4.4219 N.pl3     1 <0>        -0.2986
     21 C16         5.5958   -8.4336   -3.9794 C.ar      1 <0>         0.2802
     22 C17         6.8787   -8.9737   -4.0649 C.ar      1 <0>        -0.0740
     23 C18         7.0694  -10.2687   -3.6137 C.ar      1 <0>        -0.1139
     24 C19         5.9675  -10.9516   -3.1022 C.ar      1 <0>         0.2553
     25 N4          4.7864  -10.3583   -3.0602 N.ar      1 <0>        -0.2721
     26 N5          4.6100   -9.1561   -3.4737 N.ar      1 <0>        -0.1888
     27 O2          6.1062  -12.2235   -2.6484 O.3       1 <0>        -0.2964
     28 C20         4.9339  -12.8617   -2.1380 C.3       1 <0>         0.0324
     29 C21         6.3628   -3.6740   -5.1914 C.3       1 <0>        -0.0766
     30 O3          0.7855   -7.1728   -5.6874 O.3       1 <0>        -0.4529
     31 H2          1.0039    1.9031    0.0027 H         1 <0>         0.0578
     32 H3         -0.5459    1.8868   -0.8726 H         1 <0>         0.0580
     33 H4         -0.5289    1.8773    0.9072 H         1 <0>         0.0656
     34 H5          0.5293   -0.3651    0.8851 H         1 <0>         0.0735
     35 H6         -1.0205   -0.3814    0.0098 H         1 <0>         0.0739
     36 H7          0.1910   -0.1364   -2.1398 H         1 <0>         0.0628
     37 H8          1.7408   -0.1202   -1.2645 H         1 <0>         0.0622
     38 H9          1.8702   -0.6837   -3.2734 H         1 <0>         0.1286
     39 H10         2.9638   -1.7798   -5.1869 H         1 <0>         0.1282
     40 H11         2.0447   -5.6020   -3.5324 H         1 <0>         0.1231
     41 H12         0.9592   -4.5136   -1.6099 H         1 <0>         0.1287
     42 H13         1.2860   -4.7982   -6.4698 H         1 <0>         0.1129
     43 H14         2.6155   -5.5508   -7.3733 H         1 <0>         0.1129
     44 H15         7.6983   -8.3995   -4.4710 H         1 <0>         0.1683
     45 H16         8.0423  -10.7355   -3.6570 H         1 <0>         0.1678
     46 H17         4.5473  -12.2902   -1.2942 H         1 <0>         0.0648
     47 H18         4.1770  -12.9109   -2.9208 H         1 <0>         0.0648
     48 H19         5.1833  -13.8707   -1.8098 H         1 <0>         0.1049
     49 H20         6.3094   -3.0750   -4.2823 H         1 <0>         0.0836
     50 H21         7.4068   -3.8277   -5.4645 H         1 <0>         0.0786
     51 H22         5.8485   -3.1541   -5.9997 H         1 <0>         0.0824
     52 H23         0.7093   -7.9980   -5.1892 H         1 <0>         0.4143
@<TRIPOS>BOND
     1    1    2 1
     2    1   31 1
     3    1   32 1
     4    1   33 1
     5    2    3 1
     6    2   34 1
     7    2   35 1
     8    3    4 1
     9    3   36 1
    10    3   37 1
    11    4    5 1
    12    5   10 ar
    13    5    6 ar
    14    6    7 ar
    15    6   38 1
    16    7    8 ar
    17    7   39 1
    18    8    9 ar
    19    8   11 1
    20    9   10 ar
    21    9   40 1
    22   10   41 1
    23   11   12 1
    24   11   17 1
    25   11   13 1
    26   13   14 1
    27   13   42 1
    28   13   43 1
    29   14   15 2
    30   14   30 1
    31   15   16 1
    32   16   20 1
    33   16   17 2
    34   17   18 1
    35   18   19 2
    36   18   29 1
    37   19   20 1
    38   20   21 1
    39   21   26 ar
    40   21   22 ar
    41   22   23 ar
    42   22   44 1
    43   23   24 ar
    44   23   45 1
    45   24   25 ar
    46   24   27 1
    47   25   26 ar
    48   27   28 1
    49   28   46 1
    50   28   47 1
    51   28   48 1
    52   29   49 1
    53   29   50 1
    54   29   51 1
    55   30   52 1
@<TRIPOS>MOLECULE
ZINC04940409
   47    49     0     0     0
SMALL
USER_CHARGES
N-(2-methyl-4-nitro-phenyl)-2-oxo-1-(p-tolylmethyl)pyridine-3-carboxamide
@<TRIPOS>ATOM
      1 C1          9.4207    0.8964   -4.8280 C.3       1 <0>        -0.1207
      2 C2          8.8809    0.6287   -3.4467 C.ar      1 <0>        -0.0698
      3 C3          8.0179    1.5320   -2.8548 C.ar      1 <0>        -0.1237
      4 C4          7.5221    1.2860   -1.5881 C.ar      1 <0>        -0.0839
      5 C5          7.8889    0.1366   -0.9134 C.ar      1 <0>        -0.1317
      6 C6          8.7560   -0.7641   -1.5032 C.ar      1 <0>        -0.0978
      7 C7          9.2484   -0.5203   -2.7716 C.ar      1 <0>        -0.1241
      8 C8          7.3483   -0.1316    0.4675 C.3       1 <0>         0.1297
      9 N1          6.0964   -0.8855    0.3639 N.am      1 <0>        -0.4817
     10 C9          6.1325   -2.2394    0.3575 C.2       1 <0>         0.1763
     11 C10         4.9944   -2.9735    0.2639 C.2       1 <0>        -0.2422
     12 C11         3.7566   -2.3374    0.1714 C.2       1 <0>         0.0787
     13 C12         3.7116   -0.9447    0.1769 C.2       1 <0>        -0.2923
     14 C13         4.9288   -0.2212    0.2707 C.2       1 <0>         0.5371
     15 O1          4.9170    0.9976    0.2721 O.2       1 <0>        -0.5458
     16 C14         2.4261   -0.2371    0.0812 C.2       1 <0>         0.5855
     17 O2          1.3834   -0.8633    0.1106 O.2       1 <0>        -0.5224
     18 N2          2.4029    1.1051   -0.0390 N.am      1 <0>        -0.6594
     19 C15         1.1823    1.7874   -0.0246 C.ar      1 <0>         0.2043
     20 C16         0.0534    1.2066   -0.5882 C.ar      1 <0>        -0.1240
     21 C17        -1.1493    1.8850   -0.5765 C.ar      1 <0>        -0.0392
     22 C18        -1.2329    3.1372    0.0049 C.ar      1 <0>        -0.0623
     23 C19        -0.1112    3.7182    0.5668 C.ar      1 <0>        -0.0358
     24 C20         1.0961    3.0470    0.5538 C.ar      1 <0>        -0.1115
     25 C21         2.3181    3.6808    1.1669 C.3       1 <0>        -0.1165
     26 N3         -2.5250    3.8592    0.0207 N.pl3     1 <0>         0.0325
     27 O3         -2.5991    4.9639    0.5283 O.2       1 <0>        -0.1650
     28 O4         -3.5140    3.3487   -0.4739 O.3       1 <0>        -0.1629
     29 H1         10.3518    1.4580   -4.7517 H         1 <0>         0.0748
     30 H2          9.6079   -0.0504   -5.3347 H         1 <0>         0.0690
     31 H3          8.6929    1.4751   -5.3966 H         1 <0>         0.0689
     32 H4          7.7308    2.4297   -3.3822 H         1 <0>         0.1255
     33 H5          6.8479    1.9917   -1.1257 H         1 <0>         0.1315
     34 H6          9.0460   -1.6600   -0.9743 H         1 <0>         0.1230
     35 H7          9.9224   -1.2261   -3.2342 H         1 <0>         0.1259
     36 H8          7.1615    0.8150    0.9747 H         1 <0>         0.1152
     37 H9          8.0755   -0.7112    1.0361 H         1 <0>         0.1064
     38 H10         7.0845   -2.7444    0.4285 H         1 <0>         0.1723
     39 H11         5.0475   -4.0521    0.2614 H         1 <0>         0.1607
     40 H12         2.8472   -2.9153    0.0971 H         1 <0>         0.1543
     41 H13         3.2329    1.5977   -0.1356 H         1 <0>         0.4302
     42 H14         0.1172    0.2273   -1.0391 H         1 <0>         0.1632
     43 H15        -2.0263    1.4359   -1.0186 H         1 <0>         0.1564
     44 H16        -0.1788    4.6979    1.0161 H         1 <0>         0.1568
     45 H17         2.8429    4.2645    0.4106 H         1 <0>         0.0797
     46 H18         2.0166    4.3343    1.9856 H         1 <0>         0.0789
     47 H19         2.9788    2.9022    1.5480 H         1 <0>         0.0761
@<TRIPOS>BOND
     1    1    2 1
     2    1   29 1
     3    1   30 1
     4    1   31 1
     5    2    7 ar
     6    2    3 ar
     7    3    4 ar
     8    3   32 1
     9    4    5 ar
    10    4   33 1
    11    5    6 ar
    12    5    8 1
    13    6    7 ar
    14    6   34 1
    15    7   35 1
    16    8    9 1
    17    8   36 1
    18    8   37 1
    19    9   14 am
    20    9   10 1
    21   10   11 2
    22   10   38 1
    23   11   12 1
    24   11   39 1
    25   12   13 2
    26   12   40 1
    27   13   14 1
    28   13   16 1
    29   14   15 2
    30   16   17 2
    31   16   18 am
    32   18   19 1
    33   18   41 1
    34   19   24 ar
    35   19   20 ar
    36   20   21 ar
    37   20   42 1
    38   21   22 ar
    39   21   43 1
    40   22   23 ar
    41   22   26 1
    42   23   24 ar
    43   23   44 1
    44   24   25 1
    45   25   45 1
    46   25   46 1
    47   25   47 1
    48   26   27 2
    49   26   28 1
@<TRIPOS>MOLECULE
ZINC06963509
   43    46     0     0     0
SMALL
USER_CHARGES
(4-chloro-3-nitro-phenyl)-methyl-nitro-BLAH
@<TRIPOS>ATOM
      1 C1          2.7332    1.0542    1.0476 C.3       1 <0>        -0.1209
      2 C2          2.4771    2.2721    0.1978 C.ar      1 <0>        -0.1403
      3 C3          3.4991    3.1654   -0.0459 C.ar      1 <0>        -0.0251
      4 C4          3.2626    4.2823   -0.8259 C.ar      1 <0>        -0.0717
      5 C5          2.0082    4.5011   -1.3574 C.ar      1 <0>        -0.0238
      6 C6          0.9731    3.6070   -1.1197 C.ar      1 <0>        -0.1152
      7 C7          1.2085    2.4890   -0.3380 C.ar      1 <0>         0.1864
      8 N1          0.2114    1.5549   -0.0591 N.pl3     1 <0>        -0.6110
      9 C8         -0.8225    1.5244   -1.0943 C.3       1 <0>         0.1358
     10 H1         -1.5948    0.8074   -0.8159 H         1 <0>         0.1251
     11 C9         -1.4439    2.9159   -1.2330 C.3       1 <0>        -0.0785
     12 H2         -1.9429    3.2574   -0.3260 H         1 <0>         0.1187
     13 C10        -0.3643    3.8994   -1.7331 C.3       1 <0>        -0.0167
     14 H3         -0.6552    4.9275   -1.5175 H         1 <0>         0.1091
     15 C11        -0.3254    3.6771   -3.2276 C.2       1 <0>        -0.1630
     16 C12        -1.4373    3.1195   -3.6370 C.2       1 <0>        -0.1595
     17 C13        -2.3819    2.8977   -2.4725 C.3       1 <0>        -0.1019
     18 C14        -0.2068    1.1157   -2.4077 C.ar      1 <0>        -0.1017
     19 C15         1.1570    1.2382   -2.5994 C.ar      1 <0>        -0.0792
     20 C16         1.7221    0.8636   -3.8036 C.ar      1 <0>        -0.1009
     21 C17         0.9228    0.3658   -4.8175 C.ar      1 <0>         0.0140
     22 C18        -0.4415    0.2434   -4.6251 C.ar      1 <0>        -0.0361
     23 C19        -1.0050    0.6132   -3.4182 C.ar      1 <0>        -0.0221
     24 N2         -1.2972   -0.2885   -5.7093 N.pl3     1 <0>         0.0251
     25 O1         -2.4985   -0.3962   -5.5397 O.2       1 <0>        -0.1574
     26 O2         -0.8000   -0.6186   -6.7711 O.3       1 <0>        -0.1324
     27 Cl1         1.6322   -0.1056   -6.3303 Cl        1 <0>         0.0002
     28 N3          4.3558    5.2443   -1.0906 N.pl3     1 <0>         0.0328
     29 O3          5.4632    5.0519   -0.6213 O.2       1 <0>        -0.1618
     30 O4          4.1481    6.2284   -1.7776 O.3       1 <0>        -0.1635
     31 H4          3.0589    0.2302    0.4128 H         1 <0>         0.0780
     32 H5          3.5097    1.2783    1.7790 H         1 <0>         0.0843
     33 H6          1.8163    0.7733    1.5657 H         1 <0>         0.0802
     34 H7          4.4805    2.9930    0.3707 H         1 <0>         0.1579
     35 H8          1.8301    5.3759   -1.9651 H         1 <0>         0.1546
     36 H9          0.6057    0.6374    0.0854 H         1 <0>         0.3773
     37 H10         0.5034    3.9406   -3.8679 H         1 <0>         0.1272
     38 H11        -1.6512    2.8541   -4.6618 H         1 <0>         0.1244
     39 H12        -3.1126    3.7043   -2.4124 H         1 <0>         0.0938
     40 H13        -2.8828    1.9339   -2.5632 H         1 <0>         0.0812
     41 H14         1.7806    1.6271   -1.8081 H         1 <0>         0.1555
     42 H15         2.7874    0.9590   -3.9531 H         1 <0>         0.1553
     43 H16        -2.0696    0.5137   -3.2662 H         1 <0>         0.1658
@<TRIPOS>BOND
     1    1    2 1
     2    1   31 1
     3    1   32 1
     4    1   33 1
     5    2    7 ar
     6    2    3 ar
     7    3    4 ar
     8    3   34 1
     9    4    5 ar
    10    4   28 1
    11    5    6 ar
    12    5   35 1
    13    6   13 1
    14    6    7 ar
    15    7    8 1
    16    8    9 1
    17    8   36 1
    18    9   10 1
    19    9   11 1
    20    9   18 1
    21   11   12 1
    22   11   17 1
    23   11   13 1
    24   13   14 1
    25   13   15 1
    26   15   16 2
    27   15   37 1
    28   16   17 1
    29   16   38 1
    30   17   39 1
    31   17   40 1
    32   18   23 ar
    33   18   19 ar
    34   19   20 ar
    35   19   41 1
    36   20   21 ar
    37   20   42 1
    38   21   22 ar
    39   21   27 1
    40   22   23 ar
    41   22   24 1
    42   23   43 1
    43   24   25 2
    44   24   26 1
    45   28   29 2
    46   28   30 1
@<TRIPOS>MOLECULE
ZINC28060442
   47    52     0     0     0
SMALL
USER_CHARGES
(4-methoxyphenyl)-(2-thienyl)BLAH
@<TRIPOS>ATOM
      1 C1          0.9628    2.1072    6.6756 C.3       1 <0>         0.0222
      2 O1          1.5224    3.3518    6.2516 O.3       1 <0>        -0.3148
      3 C2          1.7033    3.5238    4.9157 C.ar      1 <0>         0.1376
      4 C3          2.2420    4.7081    4.4343 C.ar      1 <0>        -0.1493
      5 C4          2.4245    4.8806    3.0758 C.ar      1 <0>        -0.0611
      6 C5          2.0702    3.8743    2.1962 C.ar      1 <0>        -0.1599
      7 C6          1.5278    2.6953    2.6731 C.ar      1 <0>        -0.0690
      8 C7          1.3490    2.5155    4.0311 C.ar      1 <0>        -0.2038
      9 C8          2.2699    4.0654    0.7148 C.3       1 <0>         0.2187
     10 H1          2.3938    5.1278    0.4581 H         1 <0>         0.1367
     11 C9          3.4754    3.2701    0.2676 C.2       1 <0>        -0.2544
     12 C10         3.3161    1.9949   -0.0923 C.2       1 <0>         0.2324
     13 C11         1.9497    1.4205   -0.0694 C.ar      1 <0>        -0.1422
     14 C12         1.7384    0.0478   -0.1043 C.ar      1 <0>        -0.0660
     15 C13         0.4470   -0.4432   -0.0832 C.ar      1 <0>        -0.1436
     16 C14        -0.6296    0.4249   -0.0278 C.ar      1 <0>        -0.0657
     17 C15        -0.4279    1.7930    0.0076 C.ar      1 <0>        -0.1431
     18 C16         0.8589    2.2980   -0.0125 C.ar      1 <0>         0.1553
     19 O2          1.0987    3.6333    0.0233 O.3       1 <0>        -0.2912
     20 N1          4.3918    1.1875   -0.4808 N.pl3     1 <0>        -0.6283
     21 C17         5.6678    1.6655   -0.2319 C.2       1 <0>         0.4855
     22 N2          6.8276    1.0748   -0.2640 N.2       1 <0>        -0.3446
     23 N3          7.7610    1.9071    0.0493 N.2       1 <0>        -0.0199
     24 N4          7.2600    3.0740    0.2979 N.2       1 <0>        -0.0590
     25 N5          5.8818    2.9600    0.1211 N.pl3     1 <0>        -0.4020
     26 C18         4.8226    3.9496    0.2577 C.3       1 <0>         0.3173
     27 H2          4.9872    4.4741    1.2105 H         1 <0>         0.1305
     28 C19         4.8886    4.9113   -0.9007 C.2       1 <0>        -0.1861
     29 C20         5.0800    6.2531   -0.8863 C.2       1 <0>        -0.1153
     30 C21         5.1082    6.9391   -2.0861 C.2       1 <0>        -0.1621
     31 C22         4.9329    6.2512   -3.2408 C.2       1 <0>        -0.1552
     32 S1          4.7271    4.5800   -2.6475 S.3       1 <0>         0.0627
     33 H3          0.8712    2.1008    7.7718 H         1 <0>         0.1047
     34 H4          1.6184    1.2831    6.3576 H         1 <0>         0.0571
     35 H5         -0.0320    1.9796    6.2238 H         1 <0>         0.0582
     36 H6          2.5189    5.4943    5.1209 H         1 <0>         0.1360
     37 H7          2.8439    5.8024    2.7005 H         1 <0>         0.1342
     38 H8          1.2475    1.9127    1.9837 H         1 <0>         0.1298
     39 H9          0.9297    1.5925    4.4035 H         1 <0>         0.1301
     40 H10         2.5775   -0.6307   -0.1481 H         1 <0>         0.1309
     41 H11         0.2768   -1.5094   -0.1103 H         1 <0>         0.1349
     42 H12        -1.6351    0.0311   -0.0124 H         1 <0>         0.1378
     43 H13        -1.2729    2.4645    0.0463 H         1 <0>         0.1423
     44 H14         4.2048    0.2165   -0.9626 H         1 <0>         0.4705
     45 H15         5.2115    6.7780    0.0483 H         1 <0>         0.1399
     46 H16         5.2637    8.0077   -2.1029 H         1 <0>         0.1411
     47 H17         4.9212    6.6187   -4.2563 H         1 <0>         0.1901
@<TRIPOS>BOND
     1    1    2 1
     2    1   33 1
     3    1   34 1
     4    1   35 1
     5    2    3 1
     6    3    8 ar
     7    3    4 ar
     8    4    5 ar
     9    4   36 1
    10    5    6 ar
    11    5   37 1
    12    6    7 ar
    13    6    9 1
    14    7    8 ar
    15    7   38 1
    16    8   39 1
    17    9   10 1
    18    9   19 1
    19    9   11 1
    20   11   26 1
    21   11   12 2
    22   12   13 1
    23   12   20 1
    24   13   18 ar
    25   13   14 ar
    26   14   15 ar
    27   14   40 1
    28   15   16 ar
    29   15   41 1
    30   16   17 ar
    31   16   42 1
    32   17   18 ar
    33   17   43 1
    34   18   19 1
    35   20   21 1
    36   20   44 1
    37   21   25 1
    38   21   22 2
    39   22   23 1
    40   23   24 2
    41   24   25 1
    42   25   26 1
    43   26   27 1
    44   26   28 1
    45   28   32 1
    46   28   29 2
    47   29   30 1
    48   29   45 1
    49   30   31 2
    50   30   46 1
    51   31   32 1
    52   31   47 1
@<TRIPOS>MOLECULE
ZINC02224391
   42    45     0     0     0
SMALL
USER_CHARGES

@<TRIPOS>ATOM
      1 C1         -0.0173    1.4248    0.0099 C.3       1 <0>         0.0248
      2 O1          0.0021   -0.0041    0.0020 O.3       1 <0>        -0.3039
      3 C2          0.6262   -0.6188    1.0422 C.ar      1 <0>         0.1101
      4 C3          1.2021    0.1367    2.0510 C.ar      1 <0>        -0.1690
      5 C4          1.8358   -0.4897    3.1079 C.ar      1 <0>        -0.0901
      6 C5          1.8971   -1.8699    3.1612 C.ar      1 <0>        -0.1071
      7 C6          1.3251   -2.6295    2.1578 C.ar      1 <0>        -0.1526
      8 C7          0.6830   -2.0080    1.0988 C.ar      1 <0>         0.1049
      9 O2          0.1145   -2.7540    0.1140 O.3       1 <0>        -0.3037
     10 C8          0.2115   -4.1743    0.2380 C.3       1 <0>         0.0242
     11 C9          2.5896   -2.5476    4.3154 C.3       1 <0>         0.2737
     12 H1          2.2301   -3.5754    4.3657 H         1 <0>         0.0976
     13 C10         4.0770   -2.5833    4.0166 C.2       1 <0>        -0.2546
     14 C11         4.9025   -1.9913    4.9008 C.2       1 <0>         0.1915
     15 N1          4.4299   -1.3839    6.0186 N.2       1 <0>        -0.5839
     16 C12         3.1601   -1.3145    6.3406 C.2       1 <0>         0.5663
     17 N2          2.1890   -1.8638    5.5521 N.pl3     1 <0>        -0.4712
     18 N3          0.9584   -1.6225    6.1627 N.2       1 <0>         0.0507
     19 N4          1.1340   -0.9939    7.2136 N.2       1 <0>         0.0318
     20 N5          2.5001   -0.7572    7.4016 N.pl3     1 <0>        -0.5265
     21 C13         6.3646   -2.0038    4.6468 C.ar      1 <0>        -0.0242
     22 C14         6.8701   -2.6175    3.5024 C.ar      1 <0>        -0.0973
     23 C15         8.2304   -2.6265    3.2709 C.ar      1 <0>        -0.0925
     24 C16         9.0924   -2.0273    4.1731 C.ar      1 <0>        -0.0840
     25 C17         8.5952   -1.4164    5.3113 C.ar      1 <0>        -0.0959
     26 C18         7.2361   -1.3970    5.5491 C.ar      1 <0>        -0.0753
     27 Br1        10.9555   -2.0439    3.8498 Br        1 <0>        -0.0488
     28 H2          1.0053    1.8021    0.0021 H         1 <0>         0.0560
     29 H3         -0.5445    1.7859   -0.8732 H         1 <0>         0.1033
     30 H4         -0.5275    1.7763    0.9067 H         1 <0>         0.0556
     31 H5          1.1562    1.2150    2.0113 H         1 <0>         0.1370
     32 H6          2.2842    0.1003    3.8935 H         1 <0>         0.1130
     33 H7          1.3747   -3.7075    2.2017 H         1 <0>         0.1403
     34 H8         -0.2815   -4.6476   -0.6111 H         1 <0>         0.1028
     35 H9          1.2614   -4.4664    0.2576 H         1 <0>         0.0564
     36 H10        -0.2714   -4.4922    1.1620 H         1 <0>         0.0562
     37 H11         4.4589   -3.0649    3.1285 H         1 <0>         0.1615
     38 H12         2.9043   -0.2856    8.1466 H         1 <0>         0.4703
     39 H13         6.1984   -3.0856    2.7981 H         1 <0>         0.1364
     40 H14         8.6232   -3.1022    2.3844 H         1 <0>         0.1368
     41 H15         9.2719   -0.9506    6.0124 H         1 <0>         0.1354
     42 H16         6.8487   -0.9159    6.4351 H         1 <0>         0.1440
@<TRIPOS>BOND
     1    1    2 1
     2    1   28 1
     3    1   29 1
     4    1   30 1
     5    2    3 1
     6    3    8 ar
     7    3    4 ar
     8    4    5 ar
     9    4   31 1
    10    5    6 ar
    11    5   32 1
    12    6    7 ar
    13    6   11 1
    14    7    8 ar
    15    7   33 1
    16    8    9 1
    17    9   10 1
    18   10   34 1
    19   10   35 1
    20   10   36 1
    21   11   12 1
    22   11   17 1
    23   11   13 1
    24   13   14 2
    25   13   37 1
    26   14   15 1
    27   14   21 1
    28   15   16 2
    29   16   20 1
    30   16   17 1
    31   17   18 1
    32   18   19 2
    33   19   20 1
    34   20   38 1
    35   21   26 ar
    36   21   22 ar
    37   22   23 ar
    38   22   39 1
    39   23   24 ar
    40   23   40 1
    41   24   25 ar
    42   24   27 1
    43   25   26 ar
    44   25   41 1
    45   26   42 1
@<TRIPOS>MOLECULE
ZINC62642420
   46    49     0     0     0
SMALL
USER_CHARGES

@<TRIPOS>ATOM
      1 C1         -1.6032   -5.1200   -0.9272 C.ar      1 <0>        -0.0763
      2 C2         -1.6014   -6.4999   -0.8676 C.ar      1 <0>        -0.0890
      3 C3         -2.4614   -7.1576   -0.0059 C.ar      1 <0>         0.0008
      4 C4         -3.3254   -6.4353    0.7989 C.ar      1 <0>        -0.0263
      5 C5         -3.3313   -5.0557    0.7439 C.ar      1 <0>        -0.0494
      6 C6         -2.4692   -4.3925   -0.1208 C.ar      1 <0>         0.1485
      7 N1         -2.4730   -2.9961   -0.1786 N.am      1 <0>        -0.6437
      8 C7         -3.6291   -2.3188   -0.0340 C.2       1 <0>         0.5072
      9 O1         -4.6557   -2.9166    0.2152 O.2       1 <0>        -0.4784
     10 C8         -3.6473   -0.8326   -0.1804 C.2       1 <0>         0.5034
     11 O2         -2.6062   -0.2232   -0.3130 O.2       1 <0>        -0.5150
     12 N2         -4.8198   -0.1682   -0.1654 N.am      1 <0>        -0.5512
     13 C9         -4.7917    1.2666   -0.1636 C.3       1 <0>         0.1198
     14 C10        -5.9153    1.8738    0.6204 C.3       1 <0>        -0.0961
     15 C11        -6.1198    1.2093    1.9718 C.3       1 <0>        -0.0981
     16 C12        -7.0438    0.0083    1.9423 C.3       1 <0>        -0.0898
     17 C13        -8.3495    0.3373    1.2130 C.3       1 <0>        -0.1099
     18 C14        -7.9788    0.7562   -0.2115 C.3       1 <0>        -0.0856
     19 C15        -7.1976    2.0687   -0.1383 C.3       1 <0>        -0.1058
     20 C16        -7.1846   -0.3170   -0.9196 C.3       1 <0>        -0.1133
     21 C17        -6.0506   -0.9389   -0.1578 C.3       1 <0>         0.1244
     22 C18        -6.4224   -1.2252    1.3039 C.3       1 <0>        -0.1084
     23 N3         -4.2442   -7.1425    1.7190 N.pl3     1 <0>         0.0308
     24 O3         -4.9991   -6.5121    2.4222 O.2       1 <0>        -0.1517
     25 O4         -4.2398   -8.3505    1.7673 O.3       1 <0>        -0.1301
     26 Cl1        -2.4572   -8.8922    0.0655 Cl        1 <0>        -0.0002
     27 H1         -0.9289   -4.6070   -1.5969 H         1 <0>         0.1594
     28 H2         -0.9283   -7.0660   -1.4944 H         1 <0>         0.1652
     29 H3         -4.0059   -4.4926    1.3717 H         1 <0>         0.1768
     30 H4         -1.6434   -2.5144   -0.3228 H         1 <0>         0.4315
     31 H5         -3.8458    1.5983    0.2645 H         1 <0>         0.0890
     32 H6         -4.8512    1.6199   -1.1930 H         1 <0>         0.0669
     33 H7         -5.5767    2.8798    0.8682 H         1 <0>         0.0715
     34 H8         -5.1490    0.8901    2.3512 H         1 <0>         0.0586
     35 H9         -6.5317    1.9463    2.6613 H         1 <0>         0.0638
     36 H10        -7.3035   -0.2413    2.9711 H         1 <0>         0.0656
     37 H11        -8.9915   -0.5431    1.1859 H         1 <0>         0.0668
     38 H12        -8.8613    1.1557    1.7193 H         1 <0>         0.0658
     39 H13        -8.8956    0.9257   -0.7762 H         1 <0>         0.0714
     40 H14        -7.8039    2.8214    0.3657 H         1 <0>         0.0700
     41 H15        -6.9706    2.4099   -1.1483 H         1 <0>         0.0644
     42 H16        -7.8734   -1.1119   -1.2057 H         1 <0>         0.0780
     43 H17        -6.7759    0.1145   -1.8333 H         1 <0>         0.0650
     44 H18        -5.8330   -1.8996   -0.6245 H         1 <0>         0.1133
     45 H19        -5.5258   -1.5050    1.8570 H         1 <0>         0.0630
     46 H20        -7.1364   -2.0481    1.3388 H         1 <0>         0.0778
@<TRIPOS>BOND
     1    1    6 ar
     2    1    2 ar
     3    1   27 1
     4    2    3 ar
     5    2   28 1
     6    3    4 ar
     7    3   26 1
     8    4    5 ar
     9    4   23 1
    10    5    6 ar
    11    5   29 1
    12    6    7 1
    13    7    8 am
    14    7   30 1
    15    8    9 2
    16    8   10 1
    17   10   11 2
    18   10   12 am
    19   12   21 1
    20   12   13 1
    21   13   14 1
    22   13   31 1
    23   13   32 1
    24   14   19 1
    25   14   15 1
    26   14   33 1
    27   15   16 1
    28   15   34 1
    29   15   35 1
    30   16   22 1
    31   16   17 1
    32   16   36 1
    33   17   18 1
    34   17   37 1
    35   17   38 1
    36   18   19 1
    37   18   20 1
    38   18   39 1
    39   19   40 1
    40   19   41 1
    41   20   21 1
    42   20   42 1
    43   20   43 1
    44   21   22 1
    45   21   44 1
    46   22   45 1
    47   22   46 1
    48   23   24 2
    49   23   25 1
@<TRIPOS>MOLECULE
ZINC05380232
   39    40     0     0     0
SMALL
USER_CHARGES
2-cyano-3-(3-nitrophenyl)-N-(p-tolylmethyleneamino)prop-2-enamide
@<TRIPOS>ATOM
      1 C1         -3.6416   15.8757   -0.8377 C.3       1 <0>        -0.1211
      2 C2         -3.6275   14.3725   -0.7314 C.ar      1 <0>        -0.0645
      3 C3         -4.8205   13.6716   -0.7233 C.ar      1 <0>        -0.1269
      4 C4         -4.8153   12.2957   -0.6262 C.ar      1 <0>        -0.0822
      5 C5         -3.6016   11.6099   -0.5359 C.ar      1 <0>        -0.0699
      6 C6         -2.4013   12.3245   -0.5388 C.ar      1 <0>        -0.0705
      7 C7         -2.4216   13.6998   -0.6418 C.ar      1 <0>        -0.1270
      8 C8         -3.5878   10.1390   -0.4318 C.2       1 <0>         0.1234
      9 N1         -2.4585    9.5049   -0.3480 N.2       1 <0>        -0.2292
     10 N2         -2.4454    8.1074   -0.2492 N.am      1 <0>        -0.5789
     11 C9         -1.2726    7.4490   -0.1622 C.2       1 <0>         0.5934
     12 O1         -0.2253    8.0682   -0.1695 O.2       1 <0>        -0.4834
     13 C10        -1.2589    5.9808   -0.0583 C.2       1 <0>        -0.1101
     14 C11        -0.0701    5.3133    0.0298 C.2       1 <0>         0.0741
     15 C12        -0.0468    3.8471   -0.0169 C.ar      1 <0>        -0.0987
     16 C13        -1.0259    3.1495   -0.7361 C.ar      1 <0>        -0.0481
     17 C14        -0.9926    1.7726   -0.7801 C.ar      1 <0>        -0.1116
     18 C15        -0.0020    1.0781   -0.1063 C.ar      1 <0>        -0.0319
     19 C16         0.9692    1.7593    0.6071 C.ar      1 <0>        -0.0449
     20 C17         0.9547    3.1367    0.6568 C.ar      1 <0>        -0.0171
     21 N3          2.0266    1.0063    1.3184 N.pl3     1 <0>         0.0244
     22 O2          2.0413   -0.2109    1.2753 O.2       1 <0>        -0.1501
     23 O3          2.8820    1.6038    1.9467 O.3       1 <0>        -0.1483
     24 C18        -2.4915    5.2520   -0.0498 C.1       1 <0>         0.2339
     25 N4         -3.4694    4.6739   -0.0429 N.1       1 <0>        -0.3866
     26 H1         -3.6804   16.3102    0.1611 H         1 <0>         0.0747
     27 H2         -2.7378   16.2124   -1.3456 H         1 <0>         0.0695
     28 H3         -4.5166   16.1915   -1.4057 H         1 <0>         0.0690
     29 H4         -5.7581   14.2031   -0.7929 H         1 <0>         0.1281
     30 H5         -5.7472   11.7499   -0.6197 H         1 <0>         0.1288
     31 H6         -1.4595   11.8011   -0.4648 H         1 <0>         0.1364
     32 H7         -1.4942   14.2533   -0.6483 H         1 <0>         0.1278
     33 H8         -4.5175    9.5893   -0.4253 H         1 <0>         0.1222
     34 H9         -3.2804    7.6138   -0.2434 H         1 <0>         0.3856
     35 H10         0.8525    5.8650    0.1340 H         1 <0>         0.1789
     36 H11        -1.8016    3.6894   -1.2588 H         1 <0>         0.1453
     37 H12        -1.7436    1.2333   -1.3383 H         1 <0>         0.1564
     38 H13         0.0155   -0.0012   -0.1413 H         1 <0>         0.1618
     39 H14         1.7136    3.6666    1.2133 H         1 <0>         0.1676
@<TRIPOS>BOND
     1    1    2 1
     2    1   26 1
     3    1   27 1
     4    1   28 1
     5    2    7 ar
     6    2    3 ar
     7    3    4 ar
     8    3   29 1
     9    4    5 ar
    10    4   30 1
    11    5    6 ar
    12    5    8 1
    13    6    7 ar
    14    6   31 1
    15    7   32 1
    16    8    9 2
    17    8   33 1
    18    9   10 1
    19   10   11 am
    20   10   34 1
    21   11   12 2
    22   11   13 1
    23   13   14 2
    24   13   24 1
    25   14   15 1
    26   14   35 1
    27   15   20 ar
    28   15   16 ar
    29   16   17 ar
    30   16   36 1
    31   17   18 ar
    32   17   37 1
    33   18   19 ar
    34   18   38 1
    35   19   20 ar
    36   19   21 1
    37   20   39 1
    38   21   22 2
    39   21   23 1
    40   24   25 3
@<TRIPOS>MOLECULE
ZINC21450505
   48    50     0     0     0
SMALL
USER_CHARGES
(3R)-1-(3,4-dimethylphenyl)-N-(2-methyl-3-nitro-phenyl)-5-oxo-pyrrolidine-3-carboxamide
@<TRIPOS>ATOM
      1 C1          2.7665    1.7643    0.2485 C.3       1 <0>        -0.1137
      2 C2          1.4299    2.4601    0.2327 C.ar      1 <0>        -0.1085
      3 C3          0.2643    1.7163    0.2655 C.ar      1 <0>        -0.0876
      4 C4         -0.9621    2.3509    0.2516 C.ar      1 <0>        -0.1560
      5 C5         -1.0243    3.7376    0.2043 C.ar      1 <0>         0.1591
      6 C6          0.1477    4.4816    0.1759 C.ar      1 <0>        -0.1528
      7 C7          1.3713    3.8407    0.1851 C.ar      1 <0>        -0.0595
      8 C8          2.6438    4.6472    0.1496 C.3       1 <0>        -0.1160
      9 N1         -2.2654    4.3837    0.1906 N.am      1 <0>        -0.5571
     10 C9         -2.4424    5.8387    0.2647 C.3       1 <0>         0.1132
     11 C10        -3.8877    6.1013   -0.2192 C.3       1 <0>        -0.1186
     12 H1         -3.9734    6.4144   -1.2702 H         1 <0>         0.1322
     13 C11        -4.5779    4.7580    0.1126 C.3       1 <0>        -0.1453
     14 C12        -3.4489    3.7511    0.1138 C.2       1 <0>         0.5227
     15 O1         -3.5910    2.5480    0.0544 O.2       1 <0>        -0.4995
     16 C13        -4.5134    7.2343    0.5527 C.2       1 <0>         0.5246
     17 O2         -3.8463    7.8747    1.3375 O.2       1 <0>        -0.5099
     18 N2         -5.8144    7.5360    0.3709 N.am      1 <0>        -0.6752
     19 C14        -6.3768    8.6342    1.0309 C.ar      1 <0>         0.1519
     20 C15        -5.8286    9.0837    2.2253 C.ar      1 <0>        -0.0849
     21 C16        -6.3860   10.1677    2.8743 C.ar      1 <0>        -0.0999
     22 C17        -7.4889   10.8056    2.3362 C.ar      1 <0>        -0.0705
     23 C18        -8.0369   10.3605    1.1474 C.ar      1 <0>        -0.0237
     24 C19        -7.4805    9.2803    0.4904 C.ar      1 <0>        -0.0500
     25 C20        -8.0746    8.7997   -0.8085 C.3       1 <0>        -0.1672
     26 N3         -9.2169   11.0464    0.5748 N.pl3     1 <0>         0.0289
     27 O3         -9.4253   12.2182    0.8336 O.2       1 <0>        -0.1483
     28 O4         -9.9795   10.4390   -0.1553 O.3       1 <0>        -0.1536
     29 H2          2.6128    0.6758    0.2873 H         1 <0>         0.0649
     30 H3          3.3368    2.0858    1.1325 H         1 <0>         0.0691
     31 H4          3.3255    2.0234   -0.6627 H         1 <0>         0.0691
     32 H5          0.3134    0.6381    0.3023 H         1 <0>         0.1275
     33 H6         -1.8719    1.7695    0.2772 H         1 <0>         0.1542
     34 H7          0.1027    5.5602    0.1432 H         1 <0>         0.1255
     35 H8          2.3979    5.7188    0.1138 H         1 <0>         0.0648
     36 H9          3.2259    4.3746   -0.7431 H         1 <0>         0.0727
     37 H10         3.2365    4.4369    1.0521 H         1 <0>         0.0728
     38 H11        -2.2982    6.1732    1.3026 H         1 <0>         0.1027
     39 H12        -1.7043    6.3315   -0.3852 H         1 <0>         0.0973
     40 H13        -5.0676    4.8302    1.0949 H         1 <0>         0.1179
     41 H14        -5.3310    4.5328   -0.6569 H         1 <0>         0.1221
     42 H15        -6.4341    6.9189   -0.2963 H         1 <0>         0.4433
     43 H16        -4.9676    8.5858    2.6462 H         1 <0>         0.1698
     44 H17        -5.9605   10.5175    3.8033 H         1 <0>         0.1521
     45 H18        -7.9232   11.6529    2.8459 H         1 <0>         0.1524
     46 H19        -8.9350    9.4314   -1.0741 H         1 <0>         0.1208
     47 H20        -8.4061    7.7568   -0.6964 H         1 <0>         0.0871
     48 H21        -7.3163    8.8600   -1.6031 H         1 <0>         0.0789
@<TRIPOS>BOND
     1    1    2 1
     2    1   29 1
     3    1   30 1
     4    1   31 1
     5    2    7 ar
     6    2    3 ar
     7    3    4 ar
     8    3   32 1
     9    4    5 ar
    10    4   33 1
    11    5    6 ar
    12    5    9 1
    13    6    7 ar
    14    6   34 1
    15    7    8 1
    16    8   35 1
    17    8   36 1
    18    8   37 1
    19    9   14 am
    20    9   10 1
    21   10   11 1
    22   10   38 1
    23   10   39 1
    24   11   12 1
    25   11   13 1
    26   11   16 1
    27   13   14 1
    28   13   40 1
    29   13   41 1
    30   14   15 2
    31   16   17 2
    32   16   18 am
    33   18   19 1
    34   18   42 1
    35   19   24 ar
    36   19   20 ar
    37   20   21 ar
    38   20   43 1
    39   21   22 ar
    40   21   44 1
    41   22   23 ar
    42   22   45 1
    43   23   24 ar
    44   23   26 1
    45   24   25 1
    46   25   46 1
    47   25   47 1
    48   25   48 1
    49   26   27 2
    50   26   28 1
@<TRIPOS>MOLECULE
ZINC38744475
   45    48     0     0     0
SMALL
USER_CHARGES

@<TRIPOS>ATOM
      1 C1         -0.0187    1.5258    0.0104 C.3       1 <0>        -0.1458
      2 C2          0.0021   -0.0041    0.0020 C.3       1 <0>        -0.0275
      3 C3          0.7421   -0.5109    1.2415 C.3       1 <0>        -0.1464
      4 C4         -1.4117   -0.5257    0.0127 C.2       1 <0>        -0.0034
      5 C5         -1.9401   -1.3026   -0.9354 C.2       1 <0>        -0.1673
      6 C6         -3.3620   -1.5434   -0.4602 C.3       1 <0>        -0.0320
      7 H1         -3.5357   -2.6052   -0.2860 H         1 <0>         0.1677
      8 N1         -3.4200   -0.7916    0.8050 N.2       1 <0>        -0.1357
      9 N2         -2.3148   -0.2750    0.9864 N.2       1 <0>        -0.1423
     10 C7         -4.3706   -0.9905   -1.4692 C.3       1 <0>         0.1572
     11 H2         -4.2507   -1.4571   -2.4470 H         1 <0>         0.1696
     12 N3         -5.7666   -1.1142   -0.9714 N.3       1 <0>        -0.4477
     13 N4         -6.2283   -0.0353   -0.2776 N.pl3     1 <0>        -0.3454
     14 C8         -7.2312    0.2309    0.6376 C.2       1 <0>         0.2544
     15 N5         -7.2003    1.5020    0.9086 N.2       1 <0>        -0.2666
     16 N6         -6.2493    2.0703    0.2541 N.2       1 <0>        -0.2272
     17 C9         -5.6258    1.1835   -0.4570 C.2       1 <0>         0.1600
     18 S1         -4.2819    0.8496   -1.5794 S.3       1 <0>        -0.0312
     19 C10        -8.1912   -0.7755    1.2177 C.3       1 <0>         0.0126
     20 C11        -7.6053   -1.3610    2.4766 C.ar      1 <0>        -0.1283
     21 C12        -6.8134   -2.4924    2.4080 C.ar      1 <0>        -0.0553
     22 C13        -6.2754   -3.0313    3.5606 C.ar      1 <0>        -0.1522
     23 C14        -6.5300   -2.4362    4.7876 C.ar      1 <0>         0.1343
     24 C15        -7.3245   -1.3008    4.8538 C.ar      1 <0>        -0.2084
     25 C16        -7.8558   -0.7627    3.6977 C.ar      1 <0>        -0.0572
     26 O1         -6.0023   -2.9647    5.9230 O.3       1 <0>        -0.3182
     27 C17        -6.3063   -2.2994    7.1506 C.3       1 <0>         0.0264
     28 H3          1.0039    1.9031    0.0027 H         1 <0>         0.0645
     29 H4         -0.5459    1.8868   -0.8726 H         1 <0>         0.0565
     30 H5         -0.5289    1.8773    0.9072 H         1 <0>         0.0658
     31 H6          0.5123   -0.3556   -0.8948 H         1 <0>         0.0877
     32 H7          0.2319   -0.1594    2.1383 H         1 <0>         0.0656
     33 H8          0.7568   -1.6008    1.2356 H         1 <0>         0.0537
     34 H9          1.7647   -0.1336    1.2338 H         1 <0>         0.0653
     35 H10        -1.4664   -1.6735   -1.8323 H         1 <0>         0.1775
     36 H11        -6.3971   -1.3595   -1.7200 H         1 <0>         0.3828
     37 H12        -9.1358   -0.2841    1.4510 H         1 <0>         0.1121
     38 H13        -8.3649   -1.5713    0.4934 H         1 <0>         0.0959
     39 H14        -6.6155   -2.9553    1.4525 H         1 <0>         0.1275
     40 H15        -5.6576   -3.9155    3.5065 H         1 <0>         0.1284
     41 H16        -7.5241   -0.8357    5.8078 H         1 <0>         0.1294
     42 H17        -8.4708    0.1237    3.7481 H         1 <0>         0.1294
     43 H18        -5.9410   -1.2734    7.1079 H         1 <0>         0.0567
     44 H19        -7.3855   -2.2948    7.3037 H         1 <0>         0.0566
     45 H20        -5.8244   -2.8226    7.9764 H         1 <0>         0.1008
@<TRIPOS>BOND
     1    1    2 1
     2    1   28 1
     3    1   29 1
     4    1   30 1
     5    2    3 1
     6    2    4 1
     7    2   31 1
     8    3   32 1
     9    3   33 1
    10    3   34 1
    11    4    9 1
    12    4    5 2
    13    5    6 1
    14    5   35 1
    15    6    7 1
    16    6    8 1
    17    6   10 1
    18    8    9 2
    19   10   11 1
    20   10   18 1
    21   10   12 1
    22   12   13 1
    23   12   36 1
    24   13   17 1
    25   13   14 1
    26   14   15 2
    27   14   19 1
    28   15   16 1
    29   16   17 2
    30   17   18 1
    31   19   20 1
    32   19   37 1
    33   19   38 1
    34   20   25 ar
    35   20   21 ar
    36   21   22 ar
    37   21   39 1
    38   22   23 ar
    39   22   40 1
    40   23   24 ar
    41   23   26 1
    42   24   25 ar
    43   24   41 1
    44   25   42 1
    45   26   27 1
    46   27   43 1
    47   27   44 1
    48   27   45 1
@<TRIPOS>MOLECULE
ZINC02914240
   44    47     0     0     0
SMALL
USER_CHARGES

@<TRIPOS>ATOM
      1 C1         -0.0173    1.4248    0.0099 C.3       1 <0>         0.0233
      2 O1          0.0021   -0.0041    0.0020 O.3       1 <0>        -0.3041
      3 C2         -1.2011   -0.6379    0.0101 C.ar      1 <0>         0.1145
      4 C3         -2.3743    0.0994    0.0195 C.ar      1 <0>        -0.1835
      5 C4         -3.5965   -0.5465    0.0272 C.ar      1 <0>        -0.0793
      6 C5         -3.6519   -1.9279    0.0261 C.ar      1 <0>        -0.1187
      7 C6         -2.4852   -2.6694    0.0172 C.ar      1 <0>        -0.0848
      8 C7         -1.2569   -2.0283    0.0032 C.ar      1 <0>         0.0904
      9 O2         -0.1083   -2.7563   -0.0116 O.3       1 <0>        -0.3208
     10 C8          0.4517   -3.1104    1.2545 C.3       1 <0>         0.0324
     11 C9         -2.5494   -4.1751    0.0165 C.3       1 <0>         0.2025
     12 H1         -1.5389   -4.5838    0.0090 H         1 <0>         0.1190
     13 C10        -3.2905   -4.6588    1.2697 C.3       1 <0>        -0.1438
     14 C11        -3.6053   -6.1535    1.1417 C.3       1 <0>         0.1946
     15 H2         -4.0972   -6.5027    2.0495 H         1 <0>         0.1285
     16 N1         -4.5017   -6.3505   -0.0145 N.pl3     1 <0>        -0.6922
     17 C12        -4.1809   -5.6439   -1.1651 C.2       1 <0>         0.4912
     18 N2         -3.2718   -4.6337   -1.1667 N.pl3     1 <0>        -0.4085
     19 N3         -3.2146   -4.1811   -2.4849 N.2       1 <0>        -0.0635
     20 N4         -4.0470   -4.9064   -3.1593 N.2       1 <0>        -0.0287
     21 N5         -4.6231   -5.7687   -2.3846 N.2       1 <0>        -0.3644
     22 C13        -2.3268   -6.9232    0.9314 C.ar      1 <0>        -0.1146
     23 C14        -1.7465   -6.9694   -0.3225 C.ar      1 <0>        -0.0981
     24 C15        -0.5740   -7.6752   -0.5160 C.ar      1 <0>        -0.1022
     25 C16         0.0189   -8.3354    0.5454 C.ar      1 <0>        -0.0256
     26 C17        -0.5623   -8.2888    1.8001 C.ar      1 <0>        -0.1070
     27 C18        -1.7319   -7.5780    1.9936 C.ar      1 <0>        -0.0892
     28 Cl1         1.4913   -9.2225    0.3030 Cl        1 <0>        -0.0613
     29 H3          1.0053    1.8021    0.0021 H         1 <0>         0.1043
     30 H4         -0.5445    1.7859   -0.8732 H         1 <0>         0.0586
     31 H5         -0.5275    1.7763    0.9067 H         1 <0>         0.0570
     32 H6         -2.3338    1.1787    0.0211 H         1 <0>         0.1379
     33 H7         -4.5102    0.0294    0.0345 H         1 <0>         0.1338
     34 H8         -4.6086   -2.4288    0.0325 H         1 <0>         0.1238
     35 H9          1.3630   -3.6881    1.0999 H         1 <0>         0.0974
     36 H10         0.6861   -2.2049    1.8142 H         1 <0>         0.0515
     37 H11        -0.2668   -3.7083    1.8151 H         1 <0>         0.0427
     38 H12        -2.6650   -4.4940    2.1470 H         1 <0>         0.1161
     39 H13        -4.2204   -4.1007    1.3788 H         1 <0>         0.0988
     40 H14        -5.2707   -6.9402    0.0275 H         1 <0>         0.4353
     41 H15        -2.2096   -6.4543   -1.1511 H         1 <0>         0.1232
     42 H16        -0.1209   -7.7115   -1.4957 H         1 <0>         0.1354
     43 H17        -0.1001   -8.8042    2.6290 H         1 <0>         0.1392
     44 H18        -2.1831   -7.5376    2.9739 H         1 <0>         0.1389
@<TRIPOS>BOND
     1    1    2 1
     2    1   29 1
     3    1   30 1
     4    1   31 1
     5    2    3 1
     6    3    8 ar
     7    3    4 ar
     8    4    5 ar
     9    4   32 1
    10    5    6 ar
    11    5   33 1
    12    6    7 ar
    13    6   34 1
    14    7    8 ar
    15    7   11 1
    16    8    9 1
    17    9   10 1
    18   10   35 1
    19   10   36 1
    20   10   37 1
    21   11   12 1
    22   11   18 1
    23   11   13 1
    24   13   14 1
    25   13   38 1
    26   13   39 1
    27   14   15 1
    28   14   16 1
    29   14   22 1
    30   16   17 1
    31   16   40 1
    32   17   21 2
    33   17   18 1
    34   18   19 1
    35   19   20 2
    36   20   21 1
    37   22   27 ar
    38   22   23 ar
    39   23   24 ar
    40   23   41 1
    41   24   25 ar
    42   24   42 1
    43   25   26 ar
    44   25   28 1
    45   26   27 ar
    46   26   43 1
    47   27   44 1
@<TRIPOS>MOLECULE
ZINC65310764
   49    52     0     0     0
SMALL
USER_CHARGES

@<TRIPOS>ATOM
      1 C1          1.5433    1.0634   -0.2614 C.3       1 <0>        -0.1155
      2 C2          0.7562   -0.2148   -0.1284 C.ar      1 <0>        -0.0615
      3 C3          0.0231   -0.6893   -1.2007 C.ar      1 <0>        -0.1332
      4 C4         -0.7002   -1.8620   -1.0830 C.ar      1 <0>        -0.0644
      5 C5         -0.6926   -2.5633    0.1067 C.ar      1 <0>        -0.1506
      6 C6          0.0427   -2.0895    1.1858 C.ar      1 <0>         0.1513
      7 C7          0.7723   -0.9140    1.0625 C.ar      1 <0>        -0.1123
      8 N1          0.0525   -2.7969    2.3914 N.pl3     1 <0>        -0.6303
      9 C8          0.1532   -2.1177    3.5899 C.2       1 <0>         0.4964
     10 C9          0.2815   -2.8400    4.8003 C.2       1 <0>        -0.2715
     11 C10         0.3796   -2.1711    5.9658 C.2       1 <0>         0.2413
     12 N2          0.3532   -0.7963    5.9573 N.am      1 <0>        -0.5261
     13 C11         0.2269   -0.1186    4.7593 C.2       1 <0>         0.4773
     14 N3          0.1347   -0.8002    3.6005 N.2       1 <0>        -0.5344
     15 N4          0.2266    1.1698    5.0135 N.2       1 <0>        -0.2826
     16 N5          0.3547    1.3369    6.3988 N.am      1 <0>        -0.4308
     17 C12         0.4303    0.1097    6.9519 C.2       1 <0>         0.6551
     18 O1          0.5471   -0.1364    8.1398 O.2       1 <0>        -0.5246
     19 C13         0.3985    2.6136    7.1161 C.3       1 <0>         0.1657
     20 C14         1.8495    3.0855    7.2292 C.3       1 <0>         0.0591
     21 H1          2.2855    3.2073    6.2377 H         1 <0>         0.0802
     22 C15         1.9217    4.4184    8.0159 C.3       1 <0>        -0.1476
     23 C16         3.3761    4.3625    8.5577 C.3       1 <0>        -0.1541
     24 C17         3.5752    2.8519    8.8065 C.3       1 <0>         0.0499
     25 O2          2.6193    2.1499    8.0009 O.3       1 <0>        -0.3698
     26 C18         0.5164   -2.9219    7.2653 C.3       1 <0>        -0.1231
     27 C19        -1.4980   -2.3750   -2.2540 C.3       1 <0>        -0.1145
     28 H2          2.5476    0.8361   -0.6189 H         1 <0>         0.0699
     29 H3          1.0458    1.7242   -0.9713 H         1 <0>         0.0673
     30 H4          1.6058    1.5544    0.7097 H         1 <0>         0.0699
     31 H5          0.0152   -0.1425   -2.1320 H         1 <0>         0.1222
     32 H6         -1.2580   -3.4790    0.1981 H         1 <0>         0.1239
     33 H7          1.3484   -0.5450    1.8982 H         1 <0>         0.1380
     34 H8         -0.0113   -3.7648    2.3863 H         1 <0>         0.4261
     35 H9          0.3002   -3.9198    4.7898 H         1 <0>         0.1677
     36 H10        -0.1838    3.3567    6.5711 H         1 <0>         0.1127
     37 H11        -0.0204    2.4843    8.1140 H         1 <0>         0.1037
     38 H12         1.7816    5.2732    7.3543 H         1 <0>         0.0897
     39 H13         1.1989    4.4328    8.8317 H         1 <0>         0.0843
     40 H14         4.0821    4.7292    7.8126 H         1 <0>         0.0780
     41 H15         3.4655    4.9239    9.4878 H         1 <0>         0.0854
     42 H16         4.5851    2.5597    8.5186 H         1 <0>         0.0669
     43 H17         3.4097    2.6257    9.8599 H         1 <0>         0.0708
     44 H18         0.5172   -3.9937    7.0673 H         1 <0>         0.0970
     45 H19         1.4513   -2.6413    7.7504 H         1 <0>         0.0963
     46 H20        -0.3205   -2.6737    7.9182 H         1 <0>         0.0954
     47 H21        -0.8743   -3.0343   -2.8577 H         1 <0>         0.0715
     48 H22        -2.3641   -2.9274   -1.8896 H         1 <0>         0.0660
     49 H23        -1.8327   -1.5343   -2.8618 H         1 <0>         0.0680
@<TRIPOS>BOND
     1    1    2 1
     2    1   28 1
     3    1   29 1
     4    1   30 1
     5    2    7 ar
     6    2    3 ar
     7    3    4 ar
     8    3   31 1
     9    4    5 ar
    10    4   27 1
    11    5    6 ar
    12    5   32 1
    13    6    7 ar
    14    6    8 1
    15    7   33 1
    16    8    9 1
    17    8   34 1
    18    9   14 2
    19    9   10 1
    20   10   11 2
    21   10   35 1
    22   11   12 1
    23   11   26 1
    24   12   17 am
    25   12   13 1
    26   13   14 1
    27   13   15 2
    28   15   16 1
    29   16   17 am
    30   16   19 1
    31   17   18 2
    32   19   20 1
    33   19   36 1
    34   19   37 1
    35   20   21 1
    36   20   25 1
    37   20   22 1
    38   22   23 1
    39   22   38 1
    40   22   39 1
    41   23   24 1
    42   23   40 1
    43   23   41 1
    44   24   25 1
    45   24   42 1
    46   24   43 1
    47   26   44 1
    48   26   45 1
    49   26   46 1
    50   27   47 1
    51   27   48 1
    52   27   49 1
@<TRIPOS>MOLECULE
ZINC00811279
   31    32     0     0     0
SMALL
USER_CHARGES
4-bromo-5-methyl-N-[(4-nitrophenyl)methyleneamino]-2H-pyrazole-3-carboxamide
@<TRIPOS>ATOM
      1 C1          6.0847    0.4983   -0.0534 C.3       1 <0>        -0.0782
      2 C2          4.5800    0.4157   -0.0395 C.2       1 <0>         0.0651
      3 C3          3.6966    1.4987   -0.0252 C.2       1 <0>        -0.1270
      4 C4          2.4297    0.9379   -0.0161 C.2       1 <0>        -0.0076
      5 N1          2.6125   -0.4169   -0.0191 N.pl3     1 <0>        -0.3722
      6 H1          1.8797   -1.0973   -0.0078 H         1 <0>         0.4559
      7 N2          3.8689   -0.6826   -0.0386 N.2       1 <0>        -0.2486
      8 C5          1.1468    1.6555   -0.0000 C.2       1 <0>         0.6056
      9 O1          1.1303    2.8722    0.0067 O.2       1 <0>        -0.4500
     10 N3         -0.0111    0.9658    0.0074 N.am      1 <0>        -0.5796
     11 N4         -1.2338    1.6498    0.0169 N.2       1 <0>        -0.2017
     12 C6         -2.3488    0.9856    0.0185 C.2       1 <0>         0.1011
     13 C7         -3.6358    1.7055    0.0286 C.ar      1 <0>        -0.0028
     14 C8         -3.6586    3.1022    0.0420 C.ar      1 <0>        -0.0802
     15 C9         -4.8660    3.7690    0.0464 C.ar      1 <0>        -0.0554
     16 C10        -6.0529    3.0576    0.0477 C.ar      1 <0>        -0.0317
     17 C11        -6.0380    1.6740    0.0397 C.ar      1 <0>        -0.0567
     18 C12        -4.8380    0.9940    0.0304 C.ar      1 <0>        -0.0891
     19 N5         -7.3448    3.7802    0.0582 N.pl3     1 <0>         0.0236
     20 O2         -8.3912    3.1569    0.0598 O.2       1 <0>        -0.1544
     21 O3         -7.3613    4.9981    0.0653 O.3       1 <0>        -0.1534
     22 Br1         4.1369    3.3378   -0.0204 Br        1 <0>         0.0303
     23 H2          6.4573    0.5127    0.9709 H         1 <0>         0.0853
     24 H3          6.4913   -0.3676   -0.5758 H         1 <0>         0.0830
     25 H4          6.3938    1.4096   -0.5653 H         1 <0>         0.0853
     26 H5          0.0021   -0.0041    0.0020 H         1 <0>         0.3835
     27 H6         -2.3342   -0.0943    0.0126 H         1 <0>         0.1347
     28 H7         -2.7329    3.6587    0.0455 H         1 <0>         0.1600
     29 H8         -4.8852    4.8488    0.0527 H         1 <0>         0.1598
     30 H9         -6.9681    1.1252    0.0412 H         1 <0>         0.1603
     31 H10        -4.8278   -0.0860    0.0249 H         1 <0>         0.1549
@<TRIPOS>BOND
     1    1    2 1
     2    1   23 1
     3    1   24 1
     4    1   25 1
     5    2    7 2
     6    2    3 1
     7    3    4 2
     8    3   22 1
     9    4    5 1
    10    4    8 1
    11    5    6 1
    12    5    7 1
    13    8    9 2
    14    8   10 am
    15   10   11 1
    16   10   26 1
    17   11   12 2
    18   12   13 1
    19   12   27 1
    20   13   18 ar
    21   13   14 ar
    22   14   15 ar
    23   14   28 1
    24   15   16 ar
    25   15   29 1
    26   16   17 ar
    27   16   19 1
    28   17   18 ar
    29   17   30 1
    30   18   31 1
    31   19   20 2
    32   19   21 1
@<TRIPOS>MOLECULE
ZINC17070677
   32    33     0     0     0
SMALL
USER_CHARGES
3-(4-fluoro-3-nitro-phenyl)-1-(3-nitrophenyl)thiourea
@<TRIPOS>ATOM
      1 C1         -1.1040    2.0808    2.0128 C.ar      1 <0>        -0.1105
      2 C2         -1.0988    3.4092    1.6342 C.ar      1 <0>        -0.0657
      3 C3         -0.0763    3.8967    0.8311 C.ar      1 <0>         0.1152
      4 C4          0.9384    3.0462    0.4110 C.ar      1 <0>        -0.0092
      5 C5          0.9305    1.7206    0.7977 C.ar      1 <0>        -0.0370
      6 C6         -0.0924    1.2368    1.5930 C.ar      1 <0>        -0.0441
      7 N1          2.0146    0.8150    0.3556 N.pl3     1 <0>         0.0279
      8 O1          2.0056   -0.3555    0.6922 O.2       1 <0>        -0.1577
      9 O2          2.9158    1.2404   -0.3447 O.3       1 <0>        -0.1463
     10 N2         -0.0679    5.2415    0.4463 N.pl3     1 <0>        -0.6189
     11 C7          1.0717    5.9571    0.5221 C.2       1 <0>         0.5442
     12 S1          2.5323    5.1939    0.9859 S.2       1 <0>        -0.5603
     13 N3          1.0615    7.2734    0.2329 N.pl3     1 <0>        -0.6196
     14 C8          2.2594    7.9977    0.2251 C.ar      1 <0>         0.1089
     15 C9          3.1728    7.8423    1.2597 C.ar      1 <0>         0.0111
     16 C10         4.3562    8.5538    1.2474 C.ar      1 <0>        -0.1471
     17 C11         4.6275    9.4304    0.2101 C.ar      1 <0>         0.1888
     18 C12         3.7160    9.5908   -0.8196 C.ar      1 <0>        -0.0829
     19 C13         2.5336    8.8767   -0.8141 C.ar      1 <0>        -0.0290
     20 N4          4.0090   10.5277   -1.9275 N.pl3     1 <0>         0.0312
     21 O3          3.2077   10.6687   -2.8338 O.2       1 <0>        -0.1550
     22 O4          5.0515   11.1575   -1.9328 O.3       1 <0>        -0.1384
     23 F1          5.7834   10.1298    0.2028 F         1 <0>        -0.0953
     24 H1         -1.8987    1.7011    2.6377 H         1 <0>         0.1568
     25 H2         -1.8890    4.0680    1.9628 H         1 <0>         0.1471
     26 H3          1.7351    3.4224   -0.2136 H         1 <0>         0.1779
     27 H4         -0.0987    0.1986    1.8904 H         1 <0>         0.1592
     28 H5         -0.8823    5.6591    0.1248 H         1 <0>         0.4181
     29 H6          0.2240    7.7189    0.0301 H         1 <0>         0.4179
     30 H7          2.9596    7.1621    2.0711 H         1 <0>         0.1761
     31 H8          5.0685    8.4302    2.0497 H         1 <0>         0.1706
     32 H9          1.8227    9.0023   -1.6173 H         1 <0>         0.1663
@<TRIPOS>BOND
     1    1    6 ar
     2    1    2 ar
     3    1   24 1
     4    2    3 ar
     5    2   25 1
     6    3    4 ar
     7    3   10 1
     8    4    5 ar
     9    4   26 1
    10    5    6 ar
    11    5    7 1
    12    6   27 1
    13    7    8 2
    14    7    9 1
    15   10   11 1
    16   10   28 1
    17   11   12 2
    18   11   13 1
    19   13   14 1
    20   13   29 1
    21   14   19 ar
    22   14   15 ar
    23   15   16 ar
    24   15   30 1
    25   16   17 ar
    26   16   31 1
    27   17   18 ar
    28   17   23 1
    29   18   19 ar
    30   18   20 1
    31   19   32 1
    32   20   21 2
    33   20   22 1
@<TRIPOS>MOLECULE
ZINC38980952
   44    46     0     0     0
SMALL
USER_CHARGES

@<TRIPOS>ATOM
      1 C1         -0.3436   -5.5373   -7.0758 C.3       1 <0>        -0.0903
      2 C2         -0.6577   -5.4335   -5.6055 C.2       1 <0>        -0.0194
      3 C3          0.1330   -5.8821   -4.6282 C.2       1 <0>        -0.1711
      4 C4         -0.6258   -5.5400   -3.3581 C.3       1 <0>        -0.0485
      5 H1         -0.8749   -6.4441   -2.8025 H         1 <0>         0.1485
      6 N1         -1.8450   -4.8884   -3.8663 N.2       1 <0>        -0.1223
      7 N2         -1.7754   -4.8685   -5.0976 N.2       1 <0>        -0.1633
      8 C5          0.1837   -4.5775   -2.4868 C.3       1 <0>         0.3221
      9 H2          1.1737   -4.9910   -2.2945 H         1 <0>         0.0771
     10 N3          0.3045   -3.2639   -3.1593 N.3       1 <0>        -0.5130
     11 N4          0.2138   -2.2835   -2.0657 N.3       1 <0>        -0.5098
     12 C6         -0.7992   -2.8863   -1.1602 C.3       1 <0>         0.3810
     13 H3         -1.8061   -2.6786   -1.5225 H         1 <0>         0.0871
     14 N5         -0.5187   -4.3365   -1.2141 N.pl3     1 <0>        -0.5171
     15 N6         -0.8543   -5.2932   -0.2472 N.2       1 <0>        -0.1226
     16 C7         -0.4497   -6.5189   -0.3795 C.2       1 <0>         0.0509
     17 C8         -0.8960   -7.5497    0.5756 C.ar      1 <0>        -0.0248
     18 C9         -0.4578   -8.8696    0.4395 C.ar      1 <0>        -0.1221
     19 C10        -0.8770   -9.8308    1.3350 C.ar      1 <0>        -0.0856
     20 C11        -1.7321   -9.4954    2.3705 C.ar      1 <0>        -0.1891
     21 C12        -2.1751   -8.1900    2.5172 C.ar      1 <0>         0.1082
     22 C13        -1.7560   -7.2098    1.6260 C.ar      1 <0>         0.0964
     23 O1         -2.1841   -5.9276    1.7703 O.3       1 <0>        -0.3017
     24 C14        -3.3929   -5.5677    1.0985 C.3       1 <0>         0.0520
     25 O2         -3.0159   -7.8678    3.5364 O.3       1 <0>        -0.3042
     26 C15        -3.4016   -8.9243    4.4180 C.3       1 <0>         0.0243
     27 S1         -0.5927   -2.2598    0.5296 S.3       1 <0>        -0.1696
     28 H4         -1.1529   -5.0896   -7.6526 H         1 <0>         0.0794
     29 H5          0.5872   -5.0109   -7.2865 H         1 <0>         0.0790
     30 H6         -0.2381   -6.5866   -7.3516 H         1 <0>         0.0782
     31 H7          1.0900   -6.3743   -4.7194 H         1 <0>         0.1709
     32 H8          1.1863   -3.1852   -3.6433 H         1 <0>         0.3677
     33 H9         -0.0960   -1.3866   -2.4089 H         1 <0>         0.3656
     34 H10         0.2139   -6.7840   -1.1892 H         1 <0>         0.1188
     35 H11         0.2089   -9.1369   -0.3670 H         1 <0>         0.1321
     36 H12        -0.5368  -10.8502    1.2277 H         1 <0>         0.1329
     37 H13        -2.0560  -10.2543    3.0673 H         1 <0>         0.1343
     38 H14        -3.2704   -5.7166    0.0257 H         1 <0>         0.0409
     39 H15        -4.2097   -6.1918    1.4610 H         1 <0>         0.0375
     40 H16        -3.6205   -4.5203    1.2963 H         1 <0>         0.0931
     41 H17        -3.9132   -9.7021    3.8510 H         1 <0>         0.0556
     42 H18        -2.5143   -9.3442    4.8918 H         1 <0>         0.0569
     43 H19        -4.0714   -8.5326    5.1835 H         1 <0>         0.1022
     44 H20        -0.7952   -0.9352    0.4125 H         1 <0>         0.0820
@<TRIPOS>BOND
     1    1    2 1
     2    1   28 1
     3    1   29 1
     4    1   30 1
     5    2    7 1
     6    2    3 2
     7    3    4 1
     8    3   31 1
     9    4    5 1
    10    4    6 1
    11    4    8 1
    12    6    7 2
    13    8    9 1
    14    8   14 1
    15    8   10 1
    16   10   11 1
    17   10   32 1
    18   11   12 1
    19   11   33 1
    20   12   13 1
    21   12   14 1
    22   12   27 1
    23   14   15 1
    24   15   16 2
    25   16   17 1
    26   16   34 1
    27   17   22 ar
    28   17   18 ar
    29   18   19 ar
    30   18   35 1
    31   19   20 ar
    32   19   36 1
    33   20   21 ar
    34   20   37 1
    35   21   22 ar
    36   21   25 1
    37   22   23 1
    38   23   24 1
    39   24   38 1
    40   24   39 1
    41   24   40 1
    42   25   26 1
    43   26   41 1
    44   26   42 1
    45   26   43 1
    46   27   44 1
@<TRIPOS>MOLECULE
ZINC56533020
   50    51     0     0     0
SMALL
USER_CHARGES

@<TRIPOS>ATOM
      1 C1         -0.4151    1.0030   -2.3924 C.3       1 <0>        -0.1538
      2 C2         -0.2946   -0.3954   -1.7834 C.3       1 <0>         0.0530
      3 O1         -1.5359   -0.7590   -1.1760 O.3       1 <0>        -0.3125
      4 C3         -1.5987   -1.9803   -0.5847 C.ar      1 <0>         0.1369
      5 C4         -0.4849   -2.8081   -0.5854 C.ar      1 <0>        -0.1935
      6 C5         -0.5431   -4.0483    0.0130 C.ar      1 <0>        -0.0414
      7 C6         -1.7256   -4.4757    0.6227 C.ar      1 <0>        -0.0486
      8 C7         -2.8478   -3.6433    0.6241 C.ar      1 <0>        -0.0358
      9 C8         -2.7811   -2.3975    0.0268 C.ar      1 <0>         0.1338
     10 N1         -3.9029   -1.5569    0.0309 N.am      1 <0>        -0.6765
     11 C9         -5.1400   -2.0836   -0.0618 C.2       1 <0>         0.7063
     12 O2         -5.2881   -3.2905   -0.0670 O.2       1 <0>        -0.5717
     13 N2         -6.2130   -1.2726   -0.1488 N.am      1 <0>        -0.7357
     14 C10        -7.5577   -1.8452   -0.2496 C.3       1 <0>         0.1630
     15 C11        -7.8655   -2.1692   -1.7133 C.3       1 <0>        -0.1463
     16 C12        -9.2583   -2.7994   -1.8107 C.3       1 <0>         0.1297
     17 N3        -10.2301   -1.8995   -1.1746 N.am      1 <0>        -0.5961
     18 C13        -9.9827   -1.4527    0.2030 C.3       1 <0>         0.1162
     19 C14        -8.5817   -0.8375    0.2778 C.3       1 <0>        -0.1435
     20 C15       -11.3273   -1.4913   -1.8423 C.2       1 <0>         0.6508
     21 O3        -11.5204   -1.8675   -2.9815 O.2       1 <0>        -0.5691
     22 O4        -12.2095   -0.6665   -1.2472 O.3       1 <0>        -0.3648
     23 C16       -13.3499   -0.2741   -2.0138 C.3       1 <0>         0.0793
     24 C17       -14.2312    0.6559   -1.1774 C.3       1 <0>        -0.1525
     25 C18        -1.7874   -5.7642    1.2444 C.1       1 <0>         0.2578
     26 N4         -1.8363   -6.7864    1.7375 N.1       1 <0>        -0.4156
     27 H1          0.5317    1.2803   -2.8558 H         1 <0>         0.0814
     28 H2         -1.2026    1.0044   -3.1461 H         1 <0>         0.0670
     29 H3         -0.6603    1.7204   -1.6094 H         1 <0>         0.0671
     30 H4         -0.0493   -1.1128   -2.5665 H         1 <0>         0.0673
     31 H5          0.4929   -0.3968   -1.0298 H         1 <0>         0.0675
     32 H6          0.4299   -2.4798   -1.0565 H         1 <0>         0.1437
     33 H7          0.3254   -4.6902    0.0104 H         1 <0>         0.1387
     34 H8         -3.7637   -3.9701    1.0939 H         1 <0>         0.1589
     35 H9         -3.7888   -0.5961    0.1005 H         1 <0>         0.4124
     36 H10        -6.0948   -0.3099   -0.1447 H         1 <0>         0.3990
     37 H11        -7.6088   -2.7587    0.3428 H         1 <0>         0.0963
     38 H12        -7.8391   -1.2523   -2.3022 H         1 <0>         0.0709
     39 H13        -7.1220   -2.8689   -2.0952 H         1 <0>         0.0880
     40 H14        -9.5229   -2.9410   -2.8586 H         1 <0>         0.1011
     41 H15        -9.2609   -3.7612   -1.2978 H         1 <0>         0.0785
     42 H16       -10.7252   -0.7058    0.4838 H         1 <0>         0.0998
     43 H17       -10.0443   -2.3047    0.8801 H         1 <0>         0.0774
     44 H18        -8.3481   -0.5895    1.3132 H         1 <0>         0.0878
     45 H19        -8.5486    0.0668   -0.3298 H         1 <0>         0.0758
     46 H20       -13.0214    0.2478   -2.9126 H         1 <0>         0.0679
     47 H21       -13.9204   -1.1591   -2.2955 H         1 <0>         0.0684
     48 H22       -15.1010    0.9552   -1.7621 H         1 <0>         0.0826
     49 H23       -14.5597    0.1340   -0.2786 H         1 <0>         0.0669
     50 H24       -13.6607    1.5409   -0.8957 H         1 <0>         0.0663
@<TRIPOS>BOND
     1    1    2 1
     2    1   27 1
     3    1   28 1
     4    1   29 1
     5    2    3 1
     6    2   30 1
     7    2   31 1
     8    3    4 1
     9    4    9 ar
    10    4    5 ar
    11    5    6 ar
    12    5   32 1
    13    6    7 ar
    14    6   33 1
    15    7    8 ar
    16    7   25 1
    17    8    9 ar
    18    8   34 1
    19    9   10 1
    20   10   11 am
    21   10   35 1
    22   11   12 2
    23   11   13 am
    24   13   14 1
    25   13   36 1
    26   14   19 1
    27   14   15 1
    28   14   37 1
    29   15   16 1
    30   15   38 1
    31   15   39 1
    32   16   17 1
    33   16   40 1
    34   16   41 1
    35   17   18 1
    36   17   20 am
    37   18   19 1
    38   18   42 1
    39   18   43 1
    40   19   44 1
    41   19   45 1
    42   20   21 2
    43   20   22 1
    44   22   23 1
    45   23   24 1
    46   23   46 1
    47   23   47 1
    48   24   48 1
    49   24   49 1
    50   24   50 1
    51   25   26 3
@<TRIPOS>MOLECULE
ZINC18144851
   45    47     0     0     0
SMALL
USER_CHARGES

@<TRIPOS>ATOM
      1 C1         -0.0187    1.5258    0.0104 C.3       1 <0>        -0.1731
      2 C2          0.0021   -0.0041    0.0020 C.3       1 <0>         0.0887
      3 N1         -1.3723   -0.5112    0.0124 N.pl3     1 <0>        -0.4531
      4 C3         -2.1026   -0.7848    1.1581 C.ar      1 <0>         0.0863
      5 C4         -1.8049   -0.6808    2.5118 C.ar      1 <0>        -0.1074
      6 C5         -2.7486   -1.0322    3.4545 C.ar      1 <0>        -0.0972
      7 C6         -3.9974   -1.4910    3.0659 C.ar      1 <0>        -0.1161
      8 C7         -4.3108   -1.6010    1.7272 C.ar      1 <0>        -0.0694
      9 C8         -3.3670   -1.2489    0.7672 C.ar      1 <0>        -0.0342
     10 C9         -3.3675   -1.2430   -0.7105 C.2       1 <0>        -0.0693
     11 C10        -2.1052   -0.7711   -1.0956 C.2       1 <0>         0.3993
     12 O1         -1.6865   -0.6055   -2.3669 O.3       1 <0>        -0.4368
     13 N2         -4.3674   -1.6080   -1.5142 N.2       1 <0>        -0.0468
     14 N3         -4.2204   -1.5486   -2.7944 N.2       1 <0>        -0.4041
     15 C11        -5.2250   -1.9153   -3.6020 C.2       1 <0>         0.4708
     16 O2         -6.2739   -2.3036   -3.1286 O.2       1 <0>        -0.4981
     17 C12        -5.0533   -1.8459   -5.0976 C.3       1 <0>         0.1240
     18 N4         -6.2841   -2.2966   -5.7519 N.am      1 <0>        -0.7212
     19 C13        -6.3625   -2.3200   -7.0972 C.2       1 <0>         0.5561
     20 O3         -5.4102   -1.9664   -7.7688 O.2       1 <0>        -0.5466
     21 C14        -7.5518   -2.7554   -7.7294 C.2       1 <0>        -0.2134
     22 C15        -7.6307   -2.7789   -9.0831 C.2       1 <0>         0.0204
     23 C16        -8.8204   -3.2145   -9.7156 C.2       1 <0>        -0.0182
     24 C17        -9.0357   -3.2941  -11.0759 C.2       1 <0>        -0.1565
     25 C18       -10.3435   -3.7732  -11.2458 C.2       1 <0>        -0.2197
     26 C19       -10.8631   -3.9628  -10.0126 C.2       1 <0>        -0.0142
     27 O4         -9.9439   -3.6314   -9.0953 O.3       1 <0>        -0.1654
     28 H1          1.0039    1.9031    0.0027 H         1 <0>         0.0834
     29 H2         -0.5459    1.8868   -0.8726 H         1 <0>         0.0680
     30 H3         -0.5289    1.8773    0.9072 H         1 <0>         0.0669
     31 H4          0.5123   -0.3556   -0.8948 H         1 <0>         0.0995
     32 H5          0.5293   -0.3651    0.8851 H         1 <0>         0.1018
     33 H6         -0.8346   -0.3251    2.8255 H         1 <0>         0.1289
     34 H7         -2.5121   -0.9494    4.5050 H         1 <0>         0.1353
     35 H8         -4.7273   -1.7637    3.8137 H         1 <0>         0.1344
     36 H9         -5.2840   -1.9589    1.4254 H         1 <0>         0.1370
     37 H10        -1.2591   -1.3862   -2.7451 H         1 <0>         0.4172
     38 H11        -4.8409   -0.8181   -5.3916 H         1 <0>         0.1082
     39 H12        -4.2257   -2.4883   -5.3985 H         1 <0>         0.1070
     40 H13        -7.0427   -2.5782   -5.2169 H         1 <0>         0.4118
     41 H14        -8.3964   -3.0689   -7.1337 H         1 <0>         0.1321
     42 H15        -6.7861   -2.4654   -9.6788 H         1 <0>         0.1620
     43 H16        -8.3350   -3.0380  -11.8568 H         1 <0>         0.1581
     44 H17       -10.8419   -3.9559  -12.1863 H         1 <0>         0.1553
     45 H18       -11.8576   -4.3268   -9.8005 H         1 <0>         0.2083
@<TRIPOS>BOND
     1    1    2 1
     2    1   28 1
     3    1   29 1
     4    1   30 1
     5    2    3 1
     6    2   31 1
     7    2   32 1
     8    3   11 1
     9    3    4 1
    10    4    9 ar
    11    4    5 ar
    12    5    6 ar
    13    5   33 1
    14    6    7 ar
    15    6   34 1
    16    7    8 ar
    17    7   35 1
    18    8    9 ar
    19    8   36 1
    20    9   10 1
    21   10   11 2
    22   10   13 1
    23   11   12 1
    24   12   37 1
    25   13   14 2
    26   14   15 1
    27   15   16 2
    28   15   17 1
    29   17   18 1
    30   17   38 1
    31   17   39 1
    32   18   19 am
    33   18   40 1
    34   19   20 2
    35   19   21 1
    36   21   22 2
    37   21   41 1
    38   22   23 1
    39   22   42 1
    40   23   27 1
    41   23   24 2
    42   24   25 1
    43   24   43 1
    44   25   26 2
    45   25   44 1
    46   26   27 1
    47   26   45 1
@<TRIPOS>MOLECULE
ZINC04512641
   46    49     0     0     0
SMALL
USER_CHARGES
1-[6-benzo[1,3]dioxol-5-yl-4-methyl-1-(p-tolyl)-5,6-dihydro-1,2,4,5-tetrazin-3-yl]ethanone
@<TRIPOS>ATOM
      1 C1          1.9749    4.6352    0.0739 C.3       1 <0>        -0.1111
      2 C2          0.7818    3.7147    0.0614 C.ar      1 <0>        -0.1248
      3 C3          0.9680    2.3442    0.0604 C.ar      1 <0>        -0.0817
      4 C4         -0.1227    1.4975    0.0485 C.ar      1 <0>        -0.1500
      5 C5         -1.4090    2.0242    0.0317 C.ar      1 <0>         0.2094
      6 C6         -1.5922    3.4022    0.0386 C.ar      1 <0>        -0.1789
      7 C7         -0.4966    4.2424    0.0505 C.ar      1 <0>        -0.0770
      8 N1         -2.5131    1.1722    0.0139 N.pl3     1 <0>        -0.4793
      9 C8         -3.8834    1.7092   -0.0040 C.3       1 <0>         0.3182
     10 H1         -3.8755    2.7520    0.3134 H         1 <0>         0.1349
     11 N2         -4.6933    0.9067    0.9320 N.3       1 <0>        -0.4272
     12 N3         -4.6201   -0.4176    0.5896 N.pl3     1 <0>        -0.4744
     13 C9         -3.3744   -0.9897    0.2961 C.2       1 <0>         0.2375
     14 N4         -2.3489   -0.2246    0.0066 N.2       1 <0>        -0.2356
     15 C10        -3.2237   -2.3974    0.3066 C.2       1 <0>         0.4191
     16 O1         -4.1904   -3.1102    0.4865 O.2       1 <0>        -0.4386
     17 C11        -1.8638   -3.0112    0.0946 C.3       1 <0>        -0.1783
     18 C12        -5.8368   -1.2314    0.5300 C.3       1 <0>         0.1293
     19 C13        -4.4551    1.6032   -1.3943 C.ar      1 <0>        -0.0959
     20 C14        -3.6170    1.6699   -2.4918 C.ar      1 <0>        -0.0808
     21 C15        -4.1367    1.5736   -3.7691 C.ar      1 <0>        -0.1030
     22 C16        -5.5002    1.4098   -3.9523 C.ar      1 <0>         0.0424
     23 C17        -6.3445    1.3421   -2.8468 C.ar      1 <0>         0.0265
     24 C18        -5.8159    1.4338   -1.5694 C.ar      1 <0>        -0.0623
     25 O2         -7.6266    1.1800   -3.2862 O.3       1 <0>        -0.3063
     26 C19        -7.5120    0.7399   -4.6524 C.3       1 <0>         0.2129
     27 O3         -6.2534    1.2899   -5.0844 O.3       1 <0>        -0.3075
     28 H2          2.2717    4.8592   -0.9507 H         1 <0>         0.0674
     29 H3          1.7143    5.5608    0.5872 H         1 <0>         0.0640
     30 H4          2.8016    4.1515    0.5942 H         1 <0>         0.0642
     31 H5          1.9677    1.9357    0.0692 H         1 <0>         0.1245
     32 H6          0.0235    0.4275    0.0477 H         1 <0>         0.1322
     33 H7         -2.5901    3.8150    0.0298 H         1 <0>         0.1224
     34 H8         -0.6381    5.3131    0.0510 H         1 <0>         0.1255
     35 H9         -4.3939    1.0510    1.8847 H         1 <0>         0.3538
     36 H10        -1.1877   -2.2862   -0.0369 H         1 <0>         0.0841
     37 H11        -1.5937   -3.6061    0.9671 H         1 <0>         0.0993
     38 H12        -1.8874   -3.6506   -0.7879 H         1 <0>         0.0997
     39 H13        -6.6972   -0.5862    0.3527 H         1 <0>         0.0732
     40 H14        -5.7512   -1.9540   -0.2815 H         1 <0>         0.0753
     41 H15        -5.9673   -1.7596    1.4746 H         1 <0>         0.0581
     42 H16        -2.5539    1.7980   -2.3509 H         1 <0>         0.1372
     43 H17        -3.4797    1.6264   -4.6246 H         1 <0>         0.1376
     44 H18        -6.4677    1.3772   -0.7101 H         1 <0>         0.1447
     45 H19        -7.4920   -0.3488   -4.7036 H         1 <0>         0.0851
     46 H20        -8.3316    1.1354   -5.2523 H         1 <0>         0.1342
@<TRIPOS>BOND
     1    1    2 1
     2    1   28 1
     3    1   29 1
     4    1   30 1
     5    2    7 ar
     6    2    3 ar
     7    3    4 ar
     8    3   31 1
     9    4    5 ar
    10    4   32 1
    11    5    6 ar
    12    5    8 1
    13    6    7 ar
    14    6   33 1
    15    7   34 1
    16    8   14 1
    17    8    9 1
    18    9   10 1
    19    9   11 1
    20    9   19 1
    21   11   12 1
    22   11   35 1
    23   12   13 1
    24   12   18 1
    25   13   14 2
    26   13   15 1
    27   15   16 2
    28   15   17 1
    29   17   36 1
    30   17   37 1
    31   17   38 1
    32   18   39 1
    33   18   40 1
    34   18   41 1
    35   19   24 ar
    36   19   20 ar
    37   20   21 ar
    38   20   42 1
    39   21   22 ar
    40   21   43 1
    41   22   27 1
    42   22   23 ar
    43   23   24 ar
    44   23   25 1
    45   24   44 1
    46   25   26 1
    47   26   27 1
    48   26   45 1
    49   26   46 1
@<TRIPOS>MOLECULE
ZINC07960204
   41    43     0     0     0
SMALL
USER_CHARGES
methyl 1-cyclopropyl-6-methyl-4-(4-nitrophenyl)-2-thioxo-3,4-dihydropyrimidine-5-carboxylate
@<TRIPOS>ATOM
      1 C1          2.4844    0.0455    0.0726 C.3       1 <0>        -0.1280
      2 C2          1.1748   -0.6992    0.0368 C.2       1 <0>         0.2552
      3 C3          0.0172   -0.0142    0.1631 C.2       1 <0>        -0.2755
      4 C4         -1.2767   -0.8013    0.1152 C.3       1 <0>         0.2170
      5 H1         -1.8177   -0.6154    1.0431 H         1 <0>         0.1099
      6 N1         -1.1644   -2.2591   -0.0606 N.pl3     1 <0>        -0.6517
      7 C5          0.0657   -2.7993   -0.1671 C.2       1 <0>         0.5405
      8 S1          0.2114   -4.4928   -0.3719 S.2       1 <0>        -0.5601
      9 N2          1.1776   -2.0549   -0.1184 N.pl3     1 <0>        -0.4692
     10 C6          2.4698   -2.7336   -0.2438 C.3       1 <0>         0.0341
     11 C7          2.7092   -3.9647    0.6326 C.3       1 <0>        -0.1122
     12 C8          3.4293   -2.6514    0.9451 C.3       1 <0>        -0.1841
     13 C9         -2.1086   -0.2593   -1.0184 C.ar      1 <0>        -0.0626
     14 C10        -1.8388   -0.6431   -2.3187 C.ar      1 <0>        -0.0978
     15 C11        -2.6050   -0.1496   -3.3582 C.ar      1 <0>        -0.0543
     16 C12        -3.6343    0.7357   -3.0983 C.ar      1 <0>        -0.0347
     17 C13        -3.9008    1.1235   -1.7985 C.ar      1 <0>        -0.0548
     18 C14        -3.1380    0.6260   -0.7586 C.ar      1 <0>        -0.0740
     19 N3         -4.4508    1.2688   -4.2119 N.pl3     1 <0>         0.0248
     20 O1         -5.3575    2.0492   -3.9830 O.2       1 <0>        -0.1534
     21 O2         -4.2160    0.9271   -5.3572 O.3       1 <0>        -0.1560
     22 C15         0.0130    1.3903    0.3284 C.2       1 <0>         0.5319
     23 O3          1.0636    1.9913    0.4541 O.2       1 <0>        -0.5042
     24 O4         -1.1558    2.0647    0.3411 O.3       1 <0>        -0.3502
     25 C16        -1.0854    3.4817    0.5122 C.3       1 <0>         0.0345
     26 H2          2.6242    0.4874    1.0592 H         1 <0>         0.1092
     27 H3          3.3012   -0.6458   -0.1349 H         1 <0>         0.0858
     28 H4          2.4751    0.8335   -0.6805 H         1 <0>         0.1069
     29 H5         -1.9569   -2.8171   -0.0992 H         1 <0>         0.4483
     30 H6          2.9054   -2.7343   -1.2430 H         1 <0>         0.1427
     31 H7          1.9052   -4.2696    1.3025 H         1 <0>         0.1150
     32 H8          3.3023   -4.7757    0.2100 H         1 <0>         0.1171
     33 H9          4.4961   -2.5984    0.7282 H         1 <0>         0.1170
     34 H10         3.0990   -2.0924    1.8206 H         1 <0>         0.1001
     35 H11        -1.0317   -1.3313   -2.5222 H         1 <0>         0.1364
     36 H12        -2.3965   -0.4524   -4.3737 H         1 <0>         0.1555
     37 H13        -4.7048    1.8155   -1.5955 H         1 <0>         0.1579
     38 H14        -3.3460    0.9293    0.2569 H         1 <0>         0.1541
     39 H15        -0.5047    3.9174   -0.3009 H         1 <0>         0.0614
     40 H16        -2.0923    3.8991    0.5039 H         1 <0>         0.1038
     41 H17        -0.6055    3.7093    1.4640 H         1 <0>         0.0638
@<TRIPOS>BOND
     1    1    2 1
     2    1   26 1
     3    1   27 1
     4    1   28 1
     5    2    9 1
     6    2    3 2
     7    3    4 1
     8    3   22 1
     9    4    5 1
    10    4    6 1
    11    4   13 1
    12    6    7 1
    13    6   29 1
    14    7    8 2
    15    7    9 1
    16    9   10 1
    17   10   12 1
    18   10   11 1
    19   10   30 1
    20   11   12 1
    21   11   31 1
    22   11   32 1
    23   12   33 1
    24   12   34 1
    25   13   18 ar
    26   13   14 ar
    27   14   15 ar
    28   14   35 1
    29   15   16 ar
    30   15   36 1
    31   16   17 ar
    32   16   19 1
    33   17   18 ar
    34   17   37 1
    35   18   38 1
    36   19   20 2
    37   19   21 1
    38   22   23 2
    39   22   24 1
    40   24   25 1
    41   25   39 1
    42   25   40 1
    43   25   41 1
@<TRIPOS>MOLECULE
ZINC22437983
   50    52     0     0     0
SMALL
USER_CHARGES
ethyl N-[4-methyl-1-[1-(o-tolyl)tetrazol-5-yl]cyclohexyl]carbamate
@<TRIPOS>ATOM
      1 C1         -0.0127    0.6263   -4.5659 C.3       1 <0>        -0.1540
      2 C2          0.2295    1.2358   -3.1836 C.3       1 <0>         0.0816
      3 O1          1.6127    1.0231   -2.7964 O.3       1 <0>        -0.3629
      4 C3          1.9923    1.5026   -1.5970 C.2       1 <0>         0.6521
      5 O2          1.1898    2.0829   -0.8930 O.2       1 <0>        -0.5612
      6 N1          3.2625    1.3388   -1.1772 N.am      1 <0>        -0.7169
      7 C4          3.7029    1.9487    0.0799 C.3       1 <0>         0.2908
      8 C5          2.8361    1.4304    1.2293 C.3       1 <0>        -0.1300
      9 C6          2.9724   -0.0905    1.3251 C.3       1 <0>        -0.1090
     10 C7          4.4352   -0.4562    1.5845 C.3       1 <0>        -0.0941
     11 C8          5.3019    0.0621    0.4351 C.3       1 <0>        -0.1111
     12 C9          5.1657    1.5830    0.3393 C.3       1 <0>        -0.1267
     13 C10         4.8951    0.1807    2.8974 C.3       1 <0>        -0.1576
     14 C11         3.5687    3.4467   -0.0144 C.2       1 <0>         0.2560
     15 N2          3.3824    4.2726    0.9818 N.2       1 <0>        -0.3177
     16 N3          3.3107    5.4831    0.5592 N.2       1 <0>        -0.0342
     17 N4          3.4507    5.5164   -0.7223 N.2       1 <0>        -0.0764
     18 N5          3.6181    4.1856   -1.1440 N.pl3     1 <0>        -0.3201
     19 C12         3.8028    3.7247   -2.4558 C.ar      1 <0>         0.1207
     20 C13         4.9164    2.9589   -2.7736 C.ar      1 <0>        -0.1058
     21 C14         5.0959    2.5069   -4.0662 C.ar      1 <0>        -0.1105
     22 C15         4.1706    2.8211   -5.0448 C.ar      1 <0>        -0.0906
     23 C16         3.0577    3.5787   -4.7300 C.ar      1 <0>        -0.1023
     24 C17         2.8729    4.0337   -3.4388 C.ar      1 <0>        -0.0513
     25 C18         1.6625    4.8642   -3.0977 C.3       1 <0>        -0.1288
     26 H1         -1.0606    0.7875   -4.8592 H         1 <0>         0.0835
     27 H2          0.1969   -0.4530   -4.5325 H         1 <0>         0.0682
     28 H3          0.6514    1.1063   -5.2997 H         1 <0>         0.0675
     29 H4          0.0199    2.3151   -3.2170 H         1 <0>         0.0680
     30 H5         -0.4346    0.7558   -2.4497 H         1 <0>         0.0707
     31 H6          3.9685    0.7472   -1.7785 H         1 <0>         0.4342
     32 H7          3.1667    1.8884    2.1732 H         1 <0>         0.0934
     33 H8          1.7844    1.6933    1.0428 H         1 <0>         0.0976
     34 H9          2.3492   -0.4631    2.1514 H         1 <0>         0.0717
     35 H10         2.6418   -0.5485    0.3812 H         1 <0>         0.0626
     36 H11         4.5331   -1.5497    1.6534 H         1 <0>         0.0764
     37 H12         6.3536   -0.2008    0.6215 H         1 <0>         0.0784
     38 H13         4.9713   -0.3958   -0.5088 H         1 <0>         0.0669
     39 H14         5.7889    1.9556   -0.4870 H         1 <0>         0.0741
     40 H15         5.4963    2.0409    1.2832 H         1 <0>         0.1016
     41 H16         5.9468   -0.0823    3.0838 H         1 <0>         0.0560
     42 H17         4.2719   -0.1919    3.7237 H         1 <0>         0.0579
     43 H18         4.7972    1.2742    2.8285 H         1 <0>         0.0629
     44 H19         5.6415    2.7167   -2.0107 H         1 <0>         0.1313
     45 H20         5.9620    1.9112   -4.3140 H         1 <0>         0.1382
     46 H21         4.3155    2.4706   -6.0560 H         1 <0>         0.1342
     47 H22         2.3347    3.8191   -5.4954 H         1 <0>         0.1346
     48 H23         1.0470    5.0025   -3.9988 H         1 <0>         0.0746
     49 H24         1.9857    5.8455   -2.7202 H         1 <0>         0.0833
     50 H25         1.0714    4.3507   -2.3251 H         1 <0>         0.0722
@<TRIPOS>BOND
     1    1    2 1
     2    1   26 1
     3    1   27 1
     4    1   28 1
     5    2    3 1
     6    2   29 1
     7    2   30 1
     8    3    4 1
     9    4    5 2
    10    4    6 am
    11    6    7 1
    12    6   31 1
    13    7   12 1
    14    7    8 1
    15    7   14 1
    16    8    9 1
    17    8   32 1
    18    8   33 1
    19    9   10 1
    20    9   34 1
    21    9   35 1
    22   10   11 1
    23   10   13 1
    24   10   36 1
    25   11   12 1
    26   11   37 1
    27   11   38 1
    28   12   39 1
    29   12   40 1
    30   13   41 1
    31   13   42 1
    32   13   43 1
    33   14   18 1
    34   14   15 2
    35   15   16 1
    36   16   17 2
    37   17   18 1
    38   18   19 1
    39   19   24 ar
    40   19   20 ar
    41   20   21 ar
    42   20   44 1
    43   21   22 ar
    44   21   45 1
    45   22   23 ar
    46   22   46 1
    47   23   24 ar
    48   23   47 1
    49   24   25 1
    50   25   48 1
    51   25   49 1
    52   25   50 1
@<TRIPOS>MOLECULE
ZINC04411592
   52    55     0     0     0
SMALL
USER_CHARGES

@<TRIPOS>ATOM
      1 C1          2.1497   -4.4437   -3.4534 C.ar      1 <0>        -0.1035
      2 C2          2.4466   -3.1461   -3.8277 C.ar      1 <0>        -0.1021
      3 C3          3.0882   -2.3005   -2.9440 C.ar      1 <0>        -0.0961
      4 C4          3.4348   -2.7544   -1.6787 C.ar      1 <0>         0.1262
      5 C5          3.1351   -4.0575   -1.3055 C.ar      1 <0>        -0.1042
      6 C6          2.4937   -4.8986   -2.1937 C.ar      1 <0>        -0.1025
      7 N1          4.0868   -1.8983   -0.7793 N.pl3     1 <0>        -0.3403
      8 C7          3.8518   -1.7661    0.5496 C.2       1 <0>         0.4897
      9 N2          4.6875   -0.8565    1.0007 N.2       1 <0>        -0.3199
     10 N3          5.4264   -0.4126    0.0488 N.2       1 <0>        -0.0315
     11 N4          5.1288   -0.9973   -1.0607 N.2       1 <0>        -0.0716
     12 N5          2.9100   -2.4572    1.2910 N.pl3     1 <0>        -0.6241
     13 C8          1.5116   -2.0084    1.3299 C.3       1 <0>         0.1453
     14 C9          1.0864   -1.8461    2.7926 C.3       1 <0>        -0.1146
     15 C10         1.3481   -3.1534    3.5439 C.3       1 <0>        -0.1033
     16 C11         2.8442   -3.4734    3.5085 C.3       1 <0>        -0.1256
     17 C12         3.2882   -3.6575    2.0493 C.3       1 <0>         0.1440
     18 C13         0.8994   -3.0084    4.9753 C.2       1 <0>         0.5184
     19 O1          0.4179   -1.9628    5.3569 O.2       1 <0>        -0.5330
     20 N6          1.0333   -4.0408    5.8313 N.am      1 <0>        -0.7283
     21 C14         0.5972   -3.8999    7.2227 C.3       1 <0>         0.1446
     22 C15         1.7179   -3.2624    8.0464 C.3       1 <0>        -0.1285
     23 C16         1.2624   -3.1152    9.4996 C.3       1 <0>        -0.1182
     24 C17         0.9301   -4.4945   10.0721 C.3       1 <0>        -0.1226
     25 C18        -0.1907   -5.1320    9.2484 C.3       1 <0>        -0.1167
     26 C19         0.2648   -5.2792    7.7952 C.3       1 <0>        -0.1259
     27 H1          1.6443   -5.1018   -4.1446 H         1 <0>         0.1344
     28 H2          2.1767   -2.7935   -4.8123 H         1 <0>         0.1378
     29 H3          3.3205   -1.2873   -3.2372 H         1 <0>         0.1355
     30 H4          3.4039   -4.4135   -0.3219 H         1 <0>         0.1312
     31 H5          2.2606   -5.9126   -1.9040 H         1 <0>         0.1372
     32 H6          1.4201   -1.0523    0.8145 H         1 <0>         0.0768
     33 H7          0.8763   -2.7495    0.8448 H         1 <0>         0.0694
     34 H8          1.6611   -1.0415    3.2514 H         1 <0>         0.0810
     35 H9          0.0240   -1.6066    2.8383 H         1 <0>         0.0856
     36 H10         0.7924   -3.9623    3.0696 H         1 <0>         0.0997
     37 H11         3.4024   -2.6536    3.9605 H         1 <0>         0.0817
     38 H12         3.0330   -4.3923    4.0636 H         1 <0>         0.0807
     39 H13         2.7948   -4.5303    1.6217 H         1 <0>         0.0713
     40 H14         4.3693   -3.7898    2.0088 H         1 <0>         0.0801
     41 H15         1.4184   -4.8771    5.5261 H         1 <0>         0.3986
     42 H16        -0.2890   -3.2665    7.2634 H         1 <0>         0.0877
     43 H17         2.6041   -3.8958    8.0058 H         1 <0>         0.0630
     44 H18         1.9547   -2.2797    7.6385 H         1 <0>         0.0670
     45 H19         2.0609   -2.6610   10.0864 H         1 <0>         0.0654
     46 H20         0.3763   -2.4818    9.5402 H         1 <0>         0.0644
     47 H21         1.8162   -5.1279   10.0315 H         1 <0>         0.0626
     48 H22         0.6056   -4.3897   11.1074 H         1 <0>         0.0645
     49 H23        -0.4275   -6.1147    9.6563 H         1 <0>         0.0676
     50 H24        -1.0768   -4.4986    9.2891 H         1 <0>         0.0653
     51 H25        -0.5336   -5.7334    7.2084 H         1 <0>         0.0680
     52 H26         1.1509   -5.9126    7.7546 H         1 <0>         0.0676
@<TRIPOS>BOND
     1    1    6 ar
     2    1    2 ar
     3    1   27 1
     4    2    3 ar
     5    2   28 1
     6    3    4 ar
     7    3   29 1
     8    4    5 ar
     9    4    7 1
    10    5    6 ar
    11    5   30 1
    12    6   31 1
    13    7   11 1
    14    7    8 1
    15    8    9 2
    16    8   12 1
    17    9   10 1
    18   10   11 2
    19   12   17 1
    20   12   13 1
    21   13   14 1
    22   13   32 1
    23   13   33 1
    24   14   15 1
    25   14   34 1
    26   14   35 1
    27   15   16 1
    28   15   18 1
    29   15   36 1
    30   16   17 1
    31   16   37 1
    32   16   38 1
    33   17   39 1
    34   17   40 1
    35   18   19 2
    36   18   20 am
    37   20   21 1
    38   20   41 1
    39   21   26 1
    40   21   22 1
    41   21   42 1
    42   22   23 1
    43   22   43 1
    44   22   44 1
    45   23   24 1
    46   23   45 1
    47   23   46 1
    48   24   25 1
    49   24   47 1
    50   24   48 1
    51   25   26 1
    52   25   49 1
    53   25   50 1
    54   26   51 1
    55   26   52 1
@<TRIPOS>MOLECULE
ZINC56073108
   49    50     0     0     0
SMALL
USER_CHARGES

@<TRIPOS>ATOM
      1 C1         -0.0187    1.5258    0.0104 C.3       1 <0>        -0.1536
      2 C2          0.0021   -0.0041    0.0020 C.3       1 <0>         0.0809
      3 O1         -1.3386   -0.4987    0.0122 O.3       1 <0>        -0.3659
      4 C3         -1.4968   -1.8357    0.0065 C.2       1 <0>         0.6503
      5 O2         -0.5233   -2.5627   -0.0067 O.2       1 <0>        -0.5669
      6 N1         -2.7351   -2.3678    0.0155 N.am      1 <0>        -0.7060
      7 C4         -2.9073   -3.8226    0.0093 C.3       1 <0>         0.1484
      8 H1         -2.1087   -4.2859    0.5886 H         1 <0>         0.0984
      9 C5         -2.8579   -4.3367   -1.4313 C.3       1 <0>        -0.1301
     10 C6         -3.0048   -5.8600   -1.4365 C.3       1 <0>        -0.1314
     11 C7         -4.3609   -6.2402   -0.8337 C.3       1 <0>         0.1170
     12 N2         -4.4756   -5.6274    0.4967 N.pl3     1 <0>        -1.0015
     13 C8         -4.2620   -4.1797    0.6292 C.3       1 <0>         0.1157
     14 S1         -4.8389   -6.5508    1.8225 S.o2      1 <0>         2.7817
     15 O3         -5.4162   -5.6753    2.7814 O.2       1 <0>        -0.9703
     16 O4         -5.5137   -7.7049    1.3410 O.2       1 <0>        -0.9682
     17 N3         -3.4041   -7.0741    2.4627 N.pl3     1 <0>        -1.0040
     18 C9         -2.8020   -8.3379    2.0167 C.3       1 <0>         0.1204
     19 C10        -1.3609   -8.0679    1.5729 C.3       1 <0>        -0.1356
     20 C11        -0.6026   -7.3768    2.7084 C.3       1 <0>        -0.1118
     21 C12        -1.2689   -6.0365    3.0274 C.3       1 <0>        -0.1068
     22 H2         -1.2746   -5.4114    2.1344 H         1 <0>         0.0744
     23 C13        -2.7060   -6.2804    3.4833 C.3       1 <0>         0.1251
     24 C14        -0.4905   -5.3310    4.1397 C.3       1 <0>        -0.1469
     25 H3          1.0039    1.9031    0.0027 H         1 <0>         0.0830
     26 H4         -0.5459    1.8868   -0.8726 H         1 <0>         0.0669
     27 H5         -0.5289    1.8773    0.9072 H         1 <0>         0.0672
     28 H6          0.5123   -0.3556   -0.8948 H         1 <0>         0.0683
     29 H7          0.5293   -0.3651    0.8851 H         1 <0>         0.0686
     30 H8         -3.5123   -1.7874    0.0260 H         1 <0>         0.4088
     31 H9         -3.6715   -3.8915   -2.0039 H         1 <0>         0.0707
     32 H10        -1.9042   -4.0624   -1.8822 H         1 <0>         0.0740
     33 H11        -2.9461   -6.2277   -2.4609 H         1 <0>         0.0830
     34 H12        -2.2056   -6.3046   -0.8434 H         1 <0>         0.0718
     35 H13        -5.1619   -5.8731   -1.4754 H         1 <0>         0.0779
     36 H14        -4.4298   -7.3243   -0.7438 H         1 <0>         0.0929
     37 H15        -4.2652   -3.9043    1.6838 H         1 <0>         0.0969
     38 H16        -5.0552   -3.6445    0.1072 H         1 <0>         0.0834
     39 H17        -2.8032   -9.0535    2.8389 H         1 <0>         0.0747
     40 H18        -3.3731   -8.7393    1.1795 H         1 <0>         0.0878
     41 H19        -0.8720   -9.0115    1.3304 H         1 <0>         0.0765
     42 H20        -1.3656   -7.4237    0.6936 H         1 <0>         0.0676
     43 H21        -0.6195   -8.0107    3.5949 H         1 <0>         0.0653
     44 H22         0.4300   -7.2057    2.4042 H         1 <0>         0.0663
     45 H23        -3.2137   -5.3247    3.6134 H         1 <0>         0.0861
     46 H24        -2.6991   -6.8245    4.4277 H         1 <0>         0.0750
     47 H25         0.5347   -5.1581    3.8122 H         1 <0>         0.0601
     48 H26        -0.9654   -4.3765    4.3665 H         1 <0>         0.0564
     49 H27        -0.4861   -5.9560    5.0327 H         1 <0>         0.0579
@<TRIPOS>BOND
     1    1    2 1
     2    1   25 1
     3    1   26 1
     4    1   27 1
     5    2    3 1
     6    2   28 1
     7    2   29 1
     8    3    4 1
     9    4    5 2
    10    4    6 am
    11    6    7 1
    12    6   30 1
    13    7    8 1
    14    7   13 1
    15    7    9 1
    16    9   10 1
    17    9   31 1
    18    9   32 1
    19   10   11 1
    20   10   33 1
    21   10   34 1
    22   11   12 1
    23   11   35 1
    24   11   36 1
    25   12   13 1
    26   12   14 1
    27   13   37 1
    28   13   38 1
    29   14   15 2
    30   14   16 2
    31   14   17 1
    32   17   23 1
    33   17   18 1
    34   18   19 1
    35   18   39 1
    36   18   40 1
    37   19   20 1
    38   19   41 1
    39   19   42 1
    40   20   21 1
    41   20   43 1
    42   20   44 1
    43   21   22 1
    44   21   23 1
    45   21   24 1
    46   23   45 1
    47   23   46 1
    48   24   47 1
    49   24   48 1
    50   24   49 1
@<TRIPOS>MOLECULE
ZINC00099277
   35    38     0     0     0
SMALL
USER_CHARGES
(3-nitrophenyl)BLAHdione
@<TRIPOS>ATOM
      1 C1          2.1236    3.7187    3.8566 C.ar      1 <0>        -0.1377
      2 C2          2.6960    4.8910    3.3975 C.ar      1 <0>        -0.0606
      3 C3          2.8996    5.0838    2.0471 C.ar      1 <0>        -0.1366
      4 C4          2.5313    4.0986    1.1343 C.ar      1 <0>         0.1641
      5 C5          1.9548    2.9217    1.6078 C.ar      1 <0>        -0.1531
      6 C6          1.7535    2.7349    2.9572 C.ar      1 <0>        -0.0314
      7 C7          1.6814    2.0920    0.3920 C.3       1 <0>         0.2058
      8 C8          2.1562    2.9081   -0.7720 C.2       1 <0>         0.5392
      9 O1          2.1176    2.5949   -1.9431 O.2       1 <0>        -0.4540
     10 N1          2.6349    4.0601   -0.2586 N.am      1 <0>        -0.6545
     11 N2          2.2774    0.7615    0.4487 N.am      1 <0>        -0.5479
     12 C9          1.5340   -0.2904    0.1081 C.2       1 <0>         0.5236
     13 O2          1.9812   -1.4171    0.1490 O.2       1 <0>        -0.4830
     14 C10         0.1019   -0.0244   -0.3337 C.3       1 <0>        -0.0971
     15 S1         -0.1087    1.7184    0.2414 S.3       1 <0>        -0.1658
     16 C11         3.6061    0.5932    0.8539 C.ar      1 <0>         0.1349
     17 C12         3.8958    0.2721    2.1738 C.ar      1 <0>        -0.0430
     18 C13         5.2081    0.1062    2.5704 C.ar      1 <0>        -0.1039
     19 C14         6.2334    0.2593    1.6549 C.ar      1 <0>        -0.0418
     20 C15         5.9483    0.5789    0.3403 C.ar      1 <0>        -0.0336
     21 C16         4.6374    0.7411   -0.0640 C.ar      1 <0>        -0.0474
     22 N3          7.0486    0.7414   -0.6364 N.pl3     1 <0>         0.0260
     23 O3          8.2044    0.5936   -0.2817 O.2       1 <0>        -0.1464
     24 O4          6.7982    1.0229   -1.7946 O.3       1 <0>        -0.1544
     25 H1          1.9663    3.5714    4.9149 H         1 <0>         0.1393
     26 H2          2.9846    5.6593    4.0997 H         1 <0>         0.1400
     27 H3          3.3467    6.0021    1.6962 H         1 <0>         0.1353
     28 H4          1.3060    1.8190    3.3139 H         1 <0>         0.1336
     29 H5          3.0079    4.7779   -0.7940 H         1 <0>         0.4251
     30 H6         -0.5967   -0.6929    0.1695 H         1 <0>         0.1554
     31 H7          0.0034   -0.0970   -1.4168 H         1 <0>         0.1450
     32 H8          3.0957    0.1528    2.8892 H         1 <0>         0.1481
     33 H9          5.4341   -0.1431    3.5966 H         1 <0>         0.1602
     34 H10         7.2589    0.1294    1.9676 H         1 <0>         0.1625
     35 H11         4.4151    0.9863   -1.0920 H         1 <0>         0.1542
@<TRIPOS>BOND
     1    1    6 ar
     2    1    2 ar
     3    1   25 1
     4    2    3 ar
     5    2   26 1
     6    3    4 ar
     7    3   27 1
     8    4   10 1
     9    4    5 ar
    10    5    6 ar
    11    5    7 1
    12    6   28 1
    13    7   15 1
    14    7    8 1
    15    7   11 1
    16    8    9 2
    17    8   10 am
    18   10   29 1
    19   11   12 am
    20   11   16 1
    21   12   13 2
    22   12   14 1
    23   14   15 1
    24   14   30 1
    25   14   31 1
    26   16   21 ar
    27   16   17 ar
    28   17   18 ar
    29   17   32 1
    30   18   19 ar
    31   18   33 1
    32   19   20 ar
    33   19   34 1
    34   20   21 ar
    35   20   22 1
    36   21   35 1
    37   22   23 2
    38   22   24 1
@<TRIPOS>MOLECULE
ZINC08706191
   38    40     0     0     0
SMALL
USER_CHARGES
but-2-enyl-trimethyl-BLAHdione
@<TRIPOS>ATOM
      1 C1          4.4419    1.1151   -3.2760 C.3       1 <0>        -0.1292
      2 C2          4.0178    1.3547   -1.8499 C.2       1 <0>        -0.1239
      3 C3          2.8404    0.9521   -1.4403 C.2       1 <0>        -0.1903
      4 C4          2.4163    1.1917   -0.0142 C.3       1 <0>         0.1489
      5 N1          1.1404    1.9115    0.0014 N.am      1 <0>        -0.5473
      6 C5         -0.0145    1.2146    0.0087 C.2       1 <0>         0.5987
      7 O1          0.0021   -0.0041    0.0020 O.2       1 <0>        -0.5172
      8 C6         -1.2363    1.9073    0.0182 C.2       1 <0>        -0.1876
      9 C7         -1.2268    3.3015    0.0311 C.2       1 <0>         0.3776
     10 N2         -2.4928    3.7098    0.0444 N.2       1 <0>        -0.5076
     11 C8         -3.3051    2.6627    0.0463 C.2       1 <0>         0.4449
     12 N3         -2.5697    1.5266    0.0340 N.pl3     1 <0>        -0.3483
     13 C9         -3.4393    0.4501    0.0367 C.2       1 <0>         0.0165
     14 C10        -4.6841    0.9178    0.0503 C.2       1 <0>         0.0693
     15 N4         -4.6256    2.2985    0.0564 N.pl3     1 <0>        -0.5588
     16 H1         -5.3847    2.9024    0.0657 H         1 <0>         0.4452
     17 C11        -5.9408    0.0862    0.0576 C.3       1 <0>        -0.0839
     18 C12        -3.0433   -1.0039    0.0261 C.3       1 <0>        -0.0854
     19 N5         -0.0069    3.9610    0.0231 N.am      1 <0>        -0.5104
     20 C13         1.1399    3.2556    0.0087 C.2       1 <0>         0.7124
     21 O2          2.2012    3.8491    0.0018 O.2       1 <0>        -0.5303
     22 C14         0.0340    5.4254    0.0297 C.3       1 <0>         0.0855
     23 H2          5.4437    1.5164   -3.4295 H         1 <0>         0.0643
     24 H3          4.4444    0.0442   -3.4793 H         1 <0>         0.0678
     25 H4          3.7444    1.6114   -3.9508 H         1 <0>         0.0660
     26 H5          4.6845    1.8584   -1.1656 H         1 <0>         0.1145
     27 H6          2.1738    0.4484   -2.1246 H         1 <0>         0.1120
     28 H7          3.1749    1.7856    0.4956 H         1 <0>         0.1047
     29 H8          2.3002    0.2354    0.4959 H         1 <0>         0.1083
     30 H9         -6.2529   -0.1096   -0.9682 H         1 <0>         0.0894
     31 H10        -5.7482   -0.8588    0.5655 H         1 <0>         0.0960
     32 H11        -6.7304    0.6256    0.5809 H         1 <0>         0.0821
     33 H12        -2.9576   -1.3496   -1.0041 H         1 <0>         0.0797
     34 H13        -2.0843   -1.1230    0.5303 H         1 <0>         0.0869
     35 H14        -3.8016   -1.5908    0.5444 H         1 <0>         0.0866
     36 H15         1.0714    5.7599    0.0213 H         1 <0>         0.1043
     37 H16        -0.4779    5.8072   -0.8536 H         1 <0>         0.0792
     38 H17        -0.4609    5.7987    0.9262 H         1 <0>         0.0795
@<TRIPOS>BOND
     1    1    2 1
     2    1   23 1
     3    1   24 1
     4    1   25 1
     5    2    3 2
     6    2   26 1
     7    3    4 1
     8    3   27 1
     9    4    5 1
    10    4   28 1
    11    4   29 1
    12    5   20 am
    13    5    6 am
    14    6    7 2
    15    6    8 1
    16    8   12 1
    17    8    9 2
    18    9   10 1
    19    9   19 1
    20   10   11 2
    21   11   15 1
    22   11   12 1
    23   12   13 1
    24   13   14 2
    25   13   18 1
    26   14   15 1
    27   14   17 1
    28   15   16 1
    29   17   30 1
    30   17   31 1
    31   17   32 1
    32   18   33 1
    33   18   34 1
    34   18   35 1
    35   19   20 am
    36   19   22 1
    37   20   21 2
    38   22   36 1
    39   22   37 1
    40   22   38 1
@<TRIPOS>MOLECULE
ZINC38742790
   37    40     0     0     0
SMALL
USER_CHARGES

@<TRIPOS>ATOM
      1 C1         -0.0187    1.5258    0.0104 C.3       1 <0>        -0.1461
      2 C2          0.0021   -0.0041    0.0020 C.3       1 <0>        -0.0262
      3 C3          0.7421   -0.5109    1.2415 C.3       1 <0>        -0.1467
      4 C4         -1.4117   -0.5257    0.0127 C.2       1 <0>        -0.0153
      5 C5         -1.9401   -1.3026   -0.9354 C.2       1 <0>        -0.1395
      6 C6         -3.3620   -1.5434   -0.4602 C.3       1 <0>         0.0481
      7 H1         -4.0805   -1.1468   -1.1776 H         1 <0>         0.1659
      8 N1         -3.4200   -0.7916    0.8050 N.2       1 <0>        -0.1315
      9 N2         -2.3148   -0.2750    0.9864 N.2       1 <0>        -0.1337
     10 C7         -3.6034   -3.0119   -0.2235 C.2       1 <0>         0.2696
     11 N3         -3.1704   -3.7043    0.7881 N.2       1 <0>        -0.2444
     12 N4         -3.5452   -4.9302    0.6771 N.2       1 <0>        -0.2225
     13 C8         -4.2201   -5.0770   -0.4201 C.2       1 <0>         0.1560
     14 N5         -4.3298   -3.8590   -1.0413 N.pl3     1 <0>        -0.3467
     15 N6         -5.0632   -3.7599   -2.1863 N.3       1 <0>        -0.4376
     16 C9         -5.2600   -5.0394   -2.9186 C.3       1 <0>         0.1745
     17 H2         -6.2508   -5.0952   -3.3695 H         1 <0>         0.1750
     18 S1         -5.0883   -6.1993   -1.4954 S.3       1 <0>        -0.0034
     19 C10        -4.1773   -5.2647   -3.9423 C.ar      1 <0>         0.1113
     20 C11        -3.8044   -6.5548   -4.2696 C.ar      1 <0>        -0.1447
     21 C12        -2.8073   -6.7511   -5.2126 C.ar      1 <0>        -0.0700
     22 C13        -2.2201   -5.6373   -5.7938 C.ar      1 <0>        -0.1576
     23 C14        -2.6451   -4.3779   -5.4163 C.ar      1 <0>         0.0996
     24 N7         -3.6005   -4.2289   -4.5194 N.ar      1 <0>        -0.4457
     25 H3          1.0039    1.9031    0.0027 H         1 <0>         0.0652
     26 H4         -0.5459    1.8868   -0.8726 H         1 <0>         0.0544
     27 H5         -0.5289    1.8773    0.9072 H         1 <0>         0.0669
     28 H6          0.5123   -0.3556   -0.8948 H         1 <0>         0.0872
     29 H7          0.7568   -1.6008    1.2356 H         1 <0>         0.0558
     30 H8          1.7647   -0.1336    1.2338 H         1 <0>         0.0651
     31 H9          0.2319   -0.1594    2.1383 H         1 <0>         0.0672
     32 H10        -1.4664   -1.6735   -1.8323 H         1 <0>         0.1748
     33 H11        -5.9461   -3.3036   -2.0118 H         1 <0>         0.3854
     34 H12        -4.2834   -7.3992   -3.7964 H         1 <0>         0.1425
     35 H13        -2.4952   -7.7477   -5.4878 H         1 <0>         0.1435
     36 H14        -1.4401   -5.7529   -6.5318 H         1 <0>         0.1416
     37 H15        -2.1928   -3.5054   -5.8643 H         1 <0>         0.1621
@<TRIPOS>BOND
     1    1    2 1
     2    1   25 1
     3    1   26 1
     4    1   27 1
     5    2    3 1
     6    2    4 1
     7    2   28 1
     8    3   29 1
     9    3   30 1
    10    3   31 1
    11    4    9 1
    12    4    5 2
    13    5    6 1
    14    5   32 1
    15    6    7 1
    16    6    8 1
    17    6   10 1
    18    8    9 2
    19   10   14 1
    20   10   11 2
    21   11   12 1
    22   12   13 2
    23   13   18 1
    24   13   14 1
    25   14   15 1
    26   15   16 1
    27   15   33 1
    28   16   17 1
    29   16   18 1
    30   16   19 1
    31   19   24 ar
    32   19   20 ar
    33   20   21 ar
    34   20   34 1
    35   21   22 ar
    36   21   35 1
    37   22   23 ar
    38   22   36 1
    39   23   24 ar
    40   23   37 1
@<TRIPOS>MOLECULE
ZINC05248224
   34    36     0     0     0
SMALL
USER_CHARGES

@<TRIPOS>ATOM
      1 C1         -0.0178    1.4608    0.0101 C.3       1 <0>         0.0714
      2 N1          0.0021   -0.0041    0.0020 N.am      1 <0>        -0.5365
      3 C2         -1.1356   -0.8026    0.0031 C.ar      1 <0>         0.2004
      4 C3         -2.4894   -0.4840    0.0117 C.ar      1 <0>        -0.1307
      5 C4         -3.4370   -1.4873    0.0116 C.ar      1 <0>        -0.0163
      6 C5         -3.0550   -2.8185    0.0030 C.ar      1 <0>        -0.0721
      7 C6         -1.7160   -3.1540   -0.0056 C.ar      1 <0>         0.0102
      8 C7         -0.7536   -2.1504   -0.0060 C.ar      1 <0>        -0.0658
      9 C8          0.7275   -2.1646   -0.0132 C.2       1 <0>        -0.0480
     10 N2          1.5174   -3.2150   -0.0230 N.2       1 <0>        -0.0904
     11 N3          2.7979   -3.0590   -0.0282 N.pl3     1 <0>        -0.4692
     12 C9          3.6365   -4.1741   -0.0387 C.ar      1 <0>         0.1493
     13 C10         3.0940   -5.4537   -0.0493 C.ar      1 <0>        -0.1305
     14 C11         3.9270   -6.5549   -0.0602 C.ar      1 <0>        -0.0905
     15 C12         5.2997   -6.3857   -0.0604 C.ar      1 <0>        -0.1321
     16 C13         5.8432   -5.1140   -0.0493 C.ar      1 <0>        -0.0881
     17 C14         5.0165   -4.0080   -0.0443 C.ar      1 <0>        -0.1454
     18 C15         1.1225   -0.7459   -0.0131 C.2       1 <0>         0.5492
     19 O1          2.2632   -0.3202   -0.0222 O.2       1 <0>        -0.5087
     20 N4         -4.0838   -3.8827    0.0036 N.pl3     1 <0>         0.0388
     21 O2         -5.2567   -3.5897    0.0115 O.2       1 <0>        -0.1573
     22 O3         -3.7512   -5.0450   -0.0039 O.3       1 <0>        -0.1577
     23 H1          1.0048    1.8381    0.0023 H         1 <0>         0.0979
     24 H2         -0.5450    1.8219   -0.8730 H         1 <0>         0.0813
     25 H3         -0.5280    1.8123    0.9069 H         1 <0>         0.0815
     26 H4         -2.7996    0.5504    0.0188 H         1 <0>         0.1549
     27 H5         -4.4863   -1.2319    0.0187 H         1 <0>         0.1642
     28 H6         -1.4172   -4.1918   -0.0115 H         1 <0>         0.1631
     29 H7          3.1778   -2.1665   -0.0248 H         1 <0>         0.4114
     30 H8          2.0222   -5.5866   -0.0488 H         1 <0>         0.1392
     31 H9          3.5062   -7.5495   -0.0681 H         1 <0>         0.1334
     32 H10         5.9488   -7.2488   -0.0689 H         1 <0>         0.1294
     33 H11         6.9155   -4.9857   -0.0492 H         1 <0>         0.1333
     34 H12         5.4416   -3.0152   -0.0405 H         1 <0>         0.1303
@<TRIPOS>BOND
     1    1    2 1
     2    1   23 1
     3    1   24 1
     4    1   25 1
     5    2   18 am
     6    2    3 1
     7    3    8 ar
     8    3    4 ar
     9    4    5 ar
    10    4   26 1
    11    5    6 ar
    12    5   27 1
    13    6    7 ar
    14    6   20 1
    15    7    8 ar
    16    7   28 1
    17    8    9 1
    18    9   10 2
    19    9   18 1
    20   10   11 1
    21   11   12 1
    22   11   29 1
    23   12   17 ar
    24   12   13 ar
    25   13   14 ar
    26   13   30 1
    27   14   15 ar
    28   14   31 1
    29   15   16 ar
    30   15   32 1
    31   16   17 ar
    32   16   33 1
    33   17   34 1
    34   18   19 2
    35   20   21 2
    36   20   22 1
@<TRIPOS>MOLECULE
ZINC06050490
   36    38     0     0     0
SMALL
USER_CHARGES

@<TRIPOS>ATOM
      1 C1         -0.0184    1.5028    0.0103 C.3       1 <0>        -0.1212
      2 C2          0.0021   -0.0041    0.0020 C.2       1 <0>        -0.1156
      3 C3          0.0048   -0.6112   -1.1378 C.2       1 <0>        -0.1602
      4 C4          0.0736   -2.0883   -1.3162 C.3       1 <0>        -0.0853
      5 C5         -0.2796   -2.8701   -0.0484 C.3       1 <0>        -0.0962
      6 H1         -1.3411   -3.1054    0.0288 H         1 <0>         0.1423
      7 C6          0.2825   -2.1685    1.1987 C.3       1 <0>        -0.1154
      8 H2         -0.1640   -2.6543    2.0663 H         1 <0>         0.1228
      9 C7          0.0243   -0.7216    1.3146 C.3       1 <0>        -0.0728
     10 C8          1.7339   -2.5550    1.1750 C.2       1 <0>         0.5449
     11 O1          2.6603   -1.9313    1.6466 O.2       1 <0>        -0.4572
     12 N1          1.8006   -3.7372    0.5228 N.am      1 <0>        -0.5541
     13 C9          0.6280   -4.1109   -0.0863 C.2       1 <0>         0.5370
     14 O2          0.3479   -5.1929   -0.5558 O.2       1 <0>        -0.4432
     15 C10         2.9657   -4.5179    0.4699 C.ar      1 <0>         0.1332
     16 C11         3.2030   -5.4795    1.4408 C.ar      1 <0>        -0.0843
     17 C12         4.3508   -6.2471    1.3868 C.ar      1 <0>        -0.0522
     18 C13         5.2650   -6.0593    0.3664 C.ar      1 <0>        -0.0211
     19 C14         5.0353   -5.1029   -0.6048 C.ar      1 <0>        -0.0748
     20 C15         3.8838   -4.3331   -0.5608 C.ar      1 <0>         0.1319
     21 O3          3.6537   -3.3958   -1.5184 O.3       1 <0>        -0.4776
     22 N2          6.4929   -6.8842    0.3142 N.pl3     1 <0>         0.0300
     23 O4          6.6956   -7.7209    1.1631 O.2       1 <0>        -0.1439
     24 O5          7.2932   -6.7213   -0.5773 O.3       1 <0>        -0.1466
     25 H3          1.0042    1.8801    0.0026 H         1 <0>         0.0695
     26 H4         -0.5455    1.8639   -0.8728 H         1 <0>         0.0660
     27 H5         -0.5286    1.8543    0.9071 H         1 <0>         0.0657
     28 H6         -0.0469   -0.0023   -2.0283 H         1 <0>         0.1148
     29 H7         -0.6168   -2.3771   -2.1087 H         1 <0>         0.0927
     30 H8          1.0848   -2.3567   -1.6221 H         1 <0>         0.0810
     31 H9          0.7876   -0.2679    1.9467 H         1 <0>         0.0966
     32 H10        -0.9446   -0.5944    1.7976 H         1 <0>         0.0946
     33 H11         2.4910   -5.6281    2.2392 H         1 <0>         0.1576
     34 H12         4.5346   -6.9953    2.1437 H         1 <0>         0.1678
     35 H13         5.7512   -4.9586   -1.4005 H         1 <0>         0.1700
     36 H14         4.0126   -2.5228   -1.3085 H         1 <0>         0.4029
@<TRIPOS>BOND
     1    1    2 1
     2    1   25 1
     3    1   26 1
     4    1   27 1
     5    2    9 1
     6    2    3 2
     7    3    4 1
     8    3   28 1
     9    4    5 1
    10    4   29 1
    11    4   30 1
    12    5    6 1
    13    5   13 1
    14    5    7 1
    15    7    8 1
    16    7    9 1
    17    7   10 1
    18    9   31 1
    19    9   32 1
    20   10   11 2
    21   10   12 am
    22   12   13 am
    23   12   15 1
    24   13   14 2
    25   15   20 ar
    26   15   16 ar
    27   16   17 ar
    28   16   33 1
    29   17   18 ar
    30   17   34 1
    31   18   19 ar
    32   18   22 1
    33   19   20 ar
    34   19   35 1
    35   20   21 1
    36   21   36 1
    37   22   23 2
    38   22   24 1
@<TRIPOS>MOLECULE
ZINC31819022
   37    40     0     0     0
SMALL
USER_CHARGES

@<TRIPOS>ATOM
      1 C1         -0.0184    1.5028    0.0103 C.3       1 <0>        -0.0787
      2 C2          0.0021   -0.0041    0.0020 C.2       1 <0>         0.1377
      3 C3          0.0079   -0.8059   -1.1240 C.2       1 <0>        -0.2872
      4 C4          0.0320   -2.1293   -0.7060 C.2       1 <0>         0.3308
      5 N1          0.0339   -2.1193    0.6480 N.pl3     1 <0>        -0.3037
      6 N2          0.0231   -0.7776    1.0636 N.2       1 <0>        -0.2818
      7 C5          0.0485   -3.2411    1.4813 C.ar      1 <0>         0.3154
      8 C6          0.5535   -3.1438    2.7766 C.ar      1 <0>        -0.0948
      9 C7          0.5456   -4.2846    3.5639 C.ar      1 <0>        -0.0836
     10 C8          0.0352   -5.4534    3.0137 C.ar      1 <0>         0.0992
     11 N3         -0.4230   -5.4539    1.7763 N.ar      1 <0>        -0.1975
     12 N4         -0.4223   -4.3989    1.0453 N.ar      1 <0>        -0.2074
     13 Cl1         0.0007   -6.9127    3.9533 Cl        1 <0>         0.0075
     14 N5          0.0571   -3.1597   -1.5984 N.2       1 <0>        -0.5478
     15 C9          0.3444   -2.9126   -2.8413 C.2       1 <0>         0.4139
     16 C10         0.7164   -1.5521   -3.3536 C.3       1 <0>        -0.1085
     17 C11        -0.0115   -0.4413   -2.5871 C.3       1 <0>         0.0513
     18 H1         -1.0416   -0.3655   -2.9354 H         1 <0>         0.0984
     19 C12         0.6973    0.8721   -2.7958 C.ar      1 <0>        -0.1242
     20 C13         0.0224    1.9560   -3.3370 C.ar      1 <0>        -0.0662
     21 C14         0.7147    3.1444   -3.5109 C.ar      1 <0>        -0.1675
     22 C15         2.0452    3.2090   -3.1417 C.ar      1 <0>         0.0997
     23 N6          2.6551    2.1578   -2.6303 N.ar      1 <0>        -0.4795
     24 C16         2.0264    1.0133   -2.4449 C.ar      1 <0>         0.1129
     25 O1          0.3065   -3.9356   -3.7195 O.3       1 <0>        -0.4516
     26 H2          1.0042    1.8801    0.0026 H         1 <0>         0.0822
     27 H3         -0.5455    1.8639   -0.8728 H         1 <0>         0.0825
     28 H4         -0.5286    1.8543    0.9071 H         1 <0>         0.0794
     29 H5          0.9394   -2.2088    3.1551 H         1 <0>         0.1716
     30 H6          0.9252   -4.2654    4.5748 H         1 <0>         0.1722
     31 H7          1.7921   -1.4132   -3.2455 H         1 <0>         0.1114
     32 H8          0.4548   -1.4858   -4.4097 H         1 <0>         0.1153
     33 H9         -1.0176    1.8760   -3.6167 H         1 <0>         0.1376
     34 H10         0.2209    4.0086   -3.9299 H         1 <0>         0.1381
     35 H11         2.5916    4.1312   -3.2739 H         1 <0>         0.1571
     36 H12         2.5577    0.1754   -2.0184 H         1 <0>         0.1488
     37 H13         0.0605   -4.7836   -3.3251 H         1 <0>         0.4172
@<TRIPOS>BOND
     1    1    2 1
     2    1   26 1
     3    1   27 1
     4    1   28 1
     5    2    6 2
     6    2    3 1
     7    3   17 1
     8    3    4 2
     9    4    5 1
    10    4   14 1
    11    5    6 1
    12    5    7 1
    13    7   12 ar
    14    7    8 ar
    15    8    9 ar
    16    8   29 1
    17    9   10 ar
    18    9   30 1
    19   10   11 ar
    20   10   13 1
    21   11   12 ar
    22   14   15 2
    23   15   16 1
    24   15   25 1
    25   16   17 1
    26   16   31 1
    27   16   32 1
    28   17   18 1
    29   17   19 1
    30   19   24 ar
    31   19   20 ar
    32   20   21 ar
    33   20   33 1
    34   21   22 ar
    35   21   34 1
    36   22   23 ar
    37   22   35 1
    38   23   24 ar
    39   24   36 1
    40   25   37 1
@<TRIPOS>MOLECULE
ZINC04725827
   42    45     0     0     0
SMALL
USER_CHARGES
(3-nitrophenyl)BLAHcarboxamide
@<TRIPOS>ATOM
      1 C1          1.1183   -4.2746   -3.6993 C.ar      1 <0>        -0.1091
      2 C2          0.9933   -3.8972   -2.3751 C.ar      1 <0>        -0.0716
      3 C3          0.2393   -4.6634   -1.5064 C.ar      1 <0>        -0.1081
      4 C4         -0.3980   -5.8018   -1.9638 C.ar      1 <0>        -0.0449
      5 C5         -0.2766   -6.1768   -3.2886 C.ar      1 <0>        -0.0382
      6 C6          0.4815   -5.4129   -4.1565 C.ar      1 <0>        -0.0531
      7 N1         -0.9586   -7.3958   -3.7782 N.pl3     1 <0>         0.0263
      8 O1         -1.6268   -8.0686   -3.0137 O.2       1 <0>        -0.1539
      9 O2         -0.8516   -7.7263   -4.9457 O.3       1 <0>        -0.1556
     10 C7          0.1070   -4.2546   -0.0619 C.3       1 <0>         0.1432
     11 H1         -0.8857   -4.5121    0.3073 H         1 <0>         0.1194
     12 C8          1.1650   -4.9488    0.7699 C.3       1 <0>        -0.0933
     13 H2          1.1916   -4.5575    1.7869 H         1 <0>         0.1089
     14 C9          1.2201   -6.4800    0.7344 C.3       1 <0>        -0.0934
     15 C10         2.7053   -6.7404    0.9699 C.2       1 <0>        -0.1591
     16 C11         3.4216   -5.6936    0.5742 C.2       1 <0>        -0.1520
     17 C12         2.5018   -4.6837   -0.0040 C.3       1 <0>        -0.0462
     18 H3          2.3483   -4.9406   -1.0521 H         1 <0>         0.0923
     19 C13         2.7547   -3.2288    0.0842 C.ar      1 <0>        -0.1317
     20 C14         4.0324   -2.7177    0.1523 C.ar      1 <0>        -0.0497
     21 C15         4.2492   -1.3508    0.2006 C.ar      1 <0>        -0.1603
     22 C16         3.1774   -0.4850    0.1775 C.ar      1 <0>        -0.0543
     23 C17         1.8783   -0.9840    0.1135 C.ar      1 <0>        -0.1950
     24 C18         1.6476   -2.3753    0.0838 C.ar      1 <0>         0.2005
     25 N2          0.3319   -2.8066    0.0721 N.pl3     1 <0>        -0.6139
     26 C19         0.7366   -0.0517    0.0828 C.2       1 <0>         0.5663
     27 O3         -0.3991   -0.4828    0.0270 O.2       1 <0>        -0.5359
     28 N3          0.9516    1.2784    0.1165 N.am      1 <0>        -0.8516
     29 H4          1.7108   -3.6782   -4.3772 H         1 <0>         0.1506
     30 H5          1.4876   -3.0055   -2.0188 H         1 <0>         0.1400
     31 H6         -0.9905   -6.3983   -1.2859 H         1 <0>         0.1580
     32 H7          0.5764   -5.7059   -5.1917 H         1 <0>         0.1566
     33 H8          0.6078   -6.9119    1.5260 H         1 <0>         0.0823
     34 H9          0.9188   -6.8596   -0.2420 H         1 <0>         0.0794
     35 H10         3.1116   -7.6399    1.4082 H         1 <0>         0.1326
     36 H11         4.4936   -5.5946    0.6594 H         1 <0>         0.1323
     37 H12         4.8759   -3.3919    0.1677 H         1 <0>         0.1278
     38 H13         5.2561   -0.9642    0.2560 H         1 <0>         0.1308
     39 H14         3.3447    0.5815    0.2093 H         1 <0>         0.1272
     40 H15        -0.2113   -2.2921   -0.6049 H         1 <0>         0.3895
     41 H16         1.8575    1.6223    0.1611 H         1 <0>         0.4007
     42 H17         0.2006    1.8919    0.0923 H         1 <0>         0.4062
@<TRIPOS>BOND
     1    1    6 ar
     2    1    2 ar
     3    1   29 1
     4    2    3 ar
     5    2   30 1
     6    3    4 ar
     7    3   10 1
     8    4    5 ar
     9    4   31 1
    10    5    6 ar
    11    5    7 1
    12    6   32 1
    13    7    8 2
    14    7    9 1
    15   10   11 1
    16   10   25 1
    17   10   12 1
    18   12   13 1
    19   12   17 1
    20   12   14 1
    21   14   15 1
    22   14   33 1
    23   14   34 1
    24   15   16 2
    25   15   35 1
    26   16   17 1
    27   16   36 1
    28   17   18 1
    29   17   19 1
    30   19   24 ar
    31   19   20 ar
    32   20   21 ar
    33   20   37 1
    34   21   22 ar
    35   21   38 1
    36   22   23 ar
    37   22   39 1
    38   23   24 ar
    39   23   26 1
    40   24   25 1
    41   25   40 1
    42   26   27 2
    43   26   28 am
    44   28   41 1
    45   28   42 1
@<TRIPOS>MOLECULE
ZINC25153044
   39    41     0     0     0
SMALL
USER_CHARGES
N-[[(2R)-2,3-dihydrobenzofuran-2-yl]methyl]-2-(5-sulfamoyl-2-thienyl)acetamide
@<TRIPOS>ATOM
      1 C1         -0.0126    1.0758    0.0080 C.ar      1 <0>        -0.1456
      2 C2         -1.2181    1.7533    0.0173 C.ar      1 <0>        -0.0849
      3 C3         -1.2423    3.1324    0.0347 C.ar      1 <0>        -0.1363
      4 C4         -0.0516    3.8550    0.0311 C.ar      1 <0>         0.1031
      5 C5          1.1526    3.1634    0.0080 C.ar      1 <0>        -0.1763
      6 C6          1.1746    1.7862    0.0004 C.ar      1 <0>        -0.0704
      7 C7          2.2597    4.1994   -0.0147 C.3       1 <0>        -0.1004
      8 C8          1.4877    5.4848   -0.3960 C.3       1 <0>         0.0754
      9 H1          1.4796    5.7279   -1.4688 H         1 <0>         0.0991
     10 O1          0.1533    5.2006    0.0578 O.3       1 <0>        -0.2999
     11 C9          2.0620    6.6993    0.3361 C.3       1 <0>         0.1216
     12 N1          1.2364    7.8758    0.0524 N.am      1 <0>        -0.7367
     13 C10         1.5539    9.0684    0.5942 C.2       1 <0>         0.5163
     14 O2          2.5231    9.1676    1.3165 O.2       1 <0>        -0.5281
     15 C11         0.7046   10.2786    0.3024 C.3       1 <0>        -0.0684
     16 C12         1.2703   11.4749    1.0234 C.2       1 <0>        -0.0841
     17 C13         2.1955   12.3693    0.5976 C.2       1 <0>        -0.1799
     18 C14         2.5655   13.4025    1.4380 C.2       1 <0>         0.0083
     19 C15         2.0000   13.4846    2.6672 C.2       1 <0>        -0.7583
     20 S1          0.9015   12.0773    2.6630 S.3       1 <0>         0.1765
     21 S2          2.2769   14.6724    3.9388 S.o2      1 <0>         2.6749
     22 O3          1.9157   14.0482    5.1632 O.2       1 <0>        -0.9783
     23 O4          3.5706   15.2151    3.7130 O.2       1 <0>        -0.9441
     24 N2          1.1980   15.9058    3.7001 N.pl3     1 <0>        -1.1614
     25 H2          0.0021   -0.0041    0.0020 H         1 <0>         0.1296
     26 H3         -2.1454    1.1997    0.0153 H         1 <0>         0.1327
     27 H4         -2.1881    3.6537    0.0470 H         1 <0>         0.1285
     28 H5          2.1182    1.2611   -0.0110 H         1 <0>         0.1259
     29 H6          2.7288    4.2565    0.9786 H         1 <0>         0.0984
     30 H7          3.0152    3.9125   -0.7610 H         1 <0>         0.0982
     31 H8          2.0659    6.5065    1.4191 H         1 <0>         0.0782
     32 H9          3.0909    6.8818   -0.0075 H         1 <0>         0.0910
     33 H10         0.3574    7.7859   -0.6028 H         1 <0>         0.4289
     34 H11         0.7006   10.4713   -0.7806 H         1 <0>         0.1269
     35 H12        -0.3243   10.0961    0.6461 H         1 <0>         0.1190
     36 H13         2.6349   12.2777   -0.3847 H         1 <0>         0.1445
     37 H14         3.2976   14.1309    1.1218 H         1 <0>         0.1504
     38 H15         1.3389   16.6717    4.4770 H         1 <0>         0.4156
     39 H16         0.1725   15.5117    3.7554 H         1 <0>         0.4100
@<TRIPOS>BOND
     1    1    6 ar
     2    1    2 ar
     3    1   25 1
     4    2    3 ar
     5    2   26 1
     6    3    4 ar
     7    3   27 1
     8    4   10 1
     9    4    5 ar
    10    5    6 ar
    11    5    7 1
    12    6   28 1
    13    7    8 1
    14    7   29 1
    15    7   30 1
    16    8    9 1
    17    8   10 1
    18    8   11 1
    19   11   12 1
    20   11   31 1
    21   11   32 1
    22   12   13 am
    23   12   33 1
    24   13   14 2
    25   13   15 1
    26   15   16 1
    27   15   34 1
    28   15   35 1
    29   16   20 1
    30   16   17 2
    31   17   18 1
    32   17   36 1
    33   18   19 2
    34   18   37 1
    35   19   20 1
    36   19   21 1
    37   21   22 2
    38   21   23 2
    39   21   24 1
    40   24   38 1
    41   24   39 1
@<TRIPOS>MOLECULE
ZINC41315916
   43    45     0     0     0
SMALL
USER_CHARGES

@<TRIPOS>ATOM
      1 C1         -0.0197    1.3730    0.0102 C.ar      1 <0>        -0.1098
      2 C2          1.1669    2.0822    0.0051 C.ar      1 <0>        -0.1217
      3 C3          2.3742    1.4093   -0.0101 C.ar      1 <0>        -0.1002
      4 C4          2.3951    0.0271   -0.0198 C.ar      1 <0>        -0.1130
      5 C5          1.2085   -0.6821   -0.0137 C.ar      1 <0>        -0.0992
      6 C6          0.0011   -0.0091    0.0001 C.ar      1 <0>        -0.1212
      7 C7          3.7113   -0.7065   -0.0374 C.3       1 <0>         0.1795
      8 N1          4.1511   -0.9537    1.3380 N.am      1 <0>        -0.7422
      9 C8          5.3108   -1.6005    1.5688 C.2       1 <0>         0.7137
     10 O1          5.9459   -2.0601    0.6395 O.2       1 <0>        -0.5820
     11 N2          5.7665   -1.7377    2.8297 N.am      1 <0>        -0.6309
     12 C9          7.0820   -2.3376    3.1074 C.3       1 <0>         0.1281
     13 C10         7.9629   -1.2637    3.7441 C.3       1 <0>        -0.1091
     14 C11         7.2266   -0.5517    4.8482 C.ar      1 <0>        -0.0055
     15 C12         7.9843    0.1307    5.7924 C.ar      1 <0>        -0.1384
     16 C13         7.3726    0.8117    6.8239 C.ar      1 <0>        -0.0192
     17 C14         5.9934    0.8183    6.9210 C.ar      1 <0>        -0.6776
     18 C15         5.2388    0.1389    5.9871 C.ar      1 <0>        -0.0064
     19 C16         5.8538   -0.5519    4.9516 C.ar      1 <0>        -0.1205
     20 C17         4.9742   -1.2899    3.9801 C.3       1 <0>         0.1529
     21 S1          5.2029    1.6903    8.2322 S.o2      1 <0>         2.7022
     22 O2          3.9285    1.0876    8.4105 O.2       1 <0>        -0.9614
     23 O3          6.1527    1.7895    9.2846 O.2       1 <0>        -0.9586
     24 N3          4.9262    3.2330    7.6975 N.pl3     1 <0>        -1.2479
     25 H1         -0.9630    1.8988    0.0267 H         1 <0>         0.1244
     26 H2          1.1506    3.1621    0.0126 H         1 <0>         0.1248
     27 H3          3.3013    1.9634   -0.0148 H         1 <0>         0.1235
     28 H4          1.2248   -1.7619   -0.0216 H         1 <0>         0.1247
     29 H5         -0.9259   -0.5632    0.0044 H         1 <0>         0.1253
     30 H6          3.5904   -1.6573   -0.5566 H         1 <0>         0.0779
     31 H7          4.4571   -0.1025   -0.5543 H         1 <0>         0.0755
     32 H8          3.6076   -0.6519    2.0826 H         1 <0>         0.3965
     33 H9          6.9675   -3.1758    3.7946 H         1 <0>         0.0769
     34 H10         7.5342   -2.6815    2.1771 H         1 <0>         0.1058
     35 H11         8.8584   -1.7311    4.1537 H         1 <0>         0.0973
     36 H12         8.2535   -0.5403    2.9824 H         1 <0>         0.0914
     37 H13         9.0618    0.1275    5.7179 H         1 <0>         0.1365
     38 H14         7.9693    1.3386    7.5538 H         1 <0>         0.1449
     39 H15         4.1614    0.1441    6.0622 H         1 <0>         0.1446
     40 H16         4.1787   -0.6283    3.6372 H         1 <0>         0.0902
     41 H17         4.5362   -2.1551    4.4778 H         1 <0>         0.0886
     42 H18         4.1661    3.7336    8.0329 H         1 <0>         0.4225
     43 H19         5.5243    3.6360    7.0488 H         1 <0>         0.4173
@<TRIPOS>BOND
     1    1    6 ar
     2    1    2 ar
     3    1   25 1
     4    2    3 ar
     5    2   26 1
     6    3    4 ar
     7    3   27 1
     8    4    5 ar
     9    4    7 1
    10    5    6 ar
    11    5   28 1
    12    6   29 1
    13    7    8 1
    14    7   30 1
    15    7   31 1
    16    8    9 am
    17    8   32 1
    18    9   10 2
    19    9   11 am
    20   11   20 1
    21   11   12 1
    22   12   13 1
    23   12   33 1
    24   12   34 1
    25   13   14 1
    26   13   35 1
    27   13   36 1
    28   14   19 ar
    29   14   15 ar
    30   15   16 ar
    31   15   37 1
    32   16   17 ar
    33   16   38 1
    34   17   18 ar
    35   17   21 1
    36   18   19 ar
    37   18   39 1
    38   19   20 1
    39   20   40 1
    40   20   41 1
    41   21   22 2
    42   21   23 2
    43   21   24 1
    44   24   42 1
    45   24   43 1
@<TRIPOS>MOLECULE
ZINC50926348
   46    49     0     0     0
SMALL
USER_CHARGES

@<TRIPOS>ATOM
      1 C1         -0.0168    1.3873    0.0097 C.ar      1 <0>        -0.1193
      2 C2          1.1597    2.1048    0.0023 C.ar      1 <0>        -0.0865
      3 C3          2.3795    1.4417   -0.0134 C.ar      1 <0>         0.0429
      4 C4          2.4015    0.0352   -0.0211 C.ar      1 <0>        -0.0824
      5 C5          3.8172   -0.3269   -0.0378 C.2       1 <0>        -0.1691
      6 C6          4.5108    0.8239   -0.0386 C.2       1 <0>         0.0349
      7 O1          3.6620    1.8644   -0.0243 O.3       1 <0>        -0.1893
      8 C7          6.0212    0.8883   -0.0525 C.3       1 <0>        -0.0429
      9 C8          6.5712   -0.4817    0.3589 C.3       1 <0>        -0.1171
     10 C9          5.8982   -1.5754   -0.4754 C.3       1 <0>        -0.1247
     11 C10         4.4290   -1.7024   -0.0532 C.3       1 <0>        -0.0456
     12 C11         1.2059   -0.6821   -0.0129 C.ar      1 <0>        -0.0611
     13 C12         0.0021   -0.0041    0.0020 C.ar      1 <0>         0.0951
     14 O2         -1.1672   -0.6982    0.0096 O.3       1 <0>        -0.4908
     15 C13         1.2265   -2.1890   -0.0212 C.3       1 <0>         0.0996
     16 N1          1.2472   -2.6861    1.3609 N.3       1 <0>        -0.5238
     17 C14        -0.0077   -2.3639    2.0556 C.3       1 <0>         0.0202
     18 C15         0.0799   -2.8458    3.5061 C.3       1 <0>         0.0624
     19 O3          0.3626   -4.2477    3.5211 O.3       1 <0>        -0.3560
     20 C16         1.5783   -4.5970    2.8538 C.3       1 <0>         0.0780
     21 H1          2.4184   -4.1105    3.3494 H         1 <0>         0.0937
     22 C17         1.5058   -4.1328    1.3967 C.3       1 <0>         0.0299
     23 C18         1.7650   -6.0918    2.8980 C.2       1 <0>         0.5244
     24 O4          0.8968   -6.7977    3.3657 O.2       1 <0>        -0.5163
     25 N2          2.8968   -6.6440    2.4178 N.am      1 <0>        -0.8515
     26 H2         -0.9620    1.9095    0.0260 H         1 <0>         0.1423
     27 H3          1.1329    3.1844    0.0083 H         1 <0>         0.1367
     28 H4          6.3679    1.1358   -1.0558 H         1 <0>         0.0914
     29 H5          6.3618    1.6464    0.6528 H         1 <0>         0.0890
     30 H6          7.6477   -0.5066    0.1896 H         1 <0>         0.0804
     31 H7          6.3660   -0.6531    1.4156 H         1 <0>         0.0717
     32 H8          5.9517   -1.3121   -1.5318 H         1 <0>         0.0670
     33 H9          6.4078   -2.5247   -0.3101 H         1 <0>         0.0735
     34 H10         4.3710   -2.1404    0.9433 H         1 <0>         0.0807
     35 H11         3.8961   -2.3326   -0.7653 H         1 <0>         0.0724
     36 H12        -1.5139   -0.8942   -0.8716 H         1 <0>         0.3883
     37 H13         0.3364   -2.5617   -0.5281 H         1 <0>         0.0491
     38 H14         2.1161   -2.5373   -0.5460 H         1 <0>         0.0882
     39 H15        -0.1663   -1.2856    2.0393 H         1 <0>         0.0962
     40 H16        -0.8385   -2.8622    1.5561 H         1 <0>         0.0507
     41 H17         0.8764   -2.3083    4.0207 H         1 <0>         0.0609
     42 H18        -0.8691   -2.6605    4.0092 H         1 <0>         0.1056
     43 H19         0.6992   -4.6595    0.8866 H         1 <0>         0.0511
     44 H20         2.4521   -4.3458    0.8993 H         1 <0>         0.0901
     45 H21         3.5911   -6.0794    2.0437 H         1 <0>         0.4021
     46 H22         3.0169   -7.6061    2.4462 H         1 <0>         0.4076
@<TRIPOS>BOND
     1    1   13 ar
     2    1    2 ar
     3    1   26 1
     4    2    3 ar
     5    2   27 1
     6    3    7 1
     7    3    4 ar
     8    4    5 1
     9    4   12 ar
    10    5   11 1
    11    5    6 2
    12    6    7 1
    13    6    8 1
    14    8    9 1
    15    8   28 1
    16    8   29 1
    17    9   10 1
    18    9   30 1
    19    9   31 1
    20   10   11 1
    21   10   32 1
    22   10   33 1
    23   11   34 1
    24   11   35 1
    25   12   13 ar
    26   12   15 1
    27   13   14 1
    28   14   36 1
    29   15   16 1
    30   15   37 1
    31   15   38 1
    32   16   22 1
    33   16   17 1
    34   17   18 1
    35   17   39 1
    36   17   40 1
    37   18   19 1
    38   18   41 1
    39   18   42 1
    40   19   20 1
    41   20   21 1
    42   20   22 1
    43   20   23 1
    44   22   43 1
    45   22   44 1
    46   23   24 2
    47   23   25 am
    48   25   45 1
    49   25   46 1
@<TRIPOS>MOLECULE
ZINC63948968
   43    46     0     0     0
SMALL
USER_CHARGES

@<TRIPOS>ATOM
      1 C1         -1.2642    1.1843    0.1825 C.3       1 <0>        -0.1221
      2 C2         -0.5852   -0.1576    0.0851 C.ar      1 <0>        -0.0781
      3 C3         -0.5748   -0.8387   -1.1180 C.ar      1 <0>        -0.1087
      4 C4          0.0448   -2.0677   -1.2150 C.ar      1 <0>        -0.0919
      5 C5          0.6645   -2.6272   -0.0960 C.ar      1 <0>        -0.1266
      6 C6          0.6544   -1.9399    1.1174 C.ar      1 <0>        -0.0553
      7 C7          0.0333   -0.7035    1.2032 C.ar      1 <0>         0.1335
      8 N1          0.0250   -0.0073    2.4173 N.am      1 <0>        -0.6566
      9 C8         -0.0566   -0.6826    3.5808 C.2       1 <0>         0.5257
     10 O1         -0.0402   -1.8954    3.5805 O.2       1 <0>        -0.4781
     11 C9         -0.1680    0.0691    4.8821 C.3       1 <0>         0.1317
     12 C10        -1.3586    1.0388    4.9195 C.3       1 <0>        -0.1074
     13 C11        -2.4609    0.1021    5.4772 C.3       1 <0>        -0.1432
     14 C12        -1.7015   -0.9310    6.2794 C.2       1 <0>         0.5431
     15 O2         -2.2118   -1.7512    7.0130 O.2       1 <0>        -0.4821
     16 N2         -0.3669   -0.8090    6.0612 N.am      1 <0>        -0.5526
     17 C13         0.8381   -1.1990    6.6809 C.ar      1 <0>         0.1511
     18 C14         1.0160   -2.3256    7.4976 C.ar      1 <0>        -0.1073
     19 C15         2.2399   -2.6049    8.0621 C.ar      1 <0>        -0.0863
     20 C16         3.3325   -1.7857    7.8438 C.ar      1 <0>        -0.1147
     21 C17         3.1863   -0.6689    7.0367 C.ar      1 <0>        -0.0537
     22 C18         1.9653   -0.3949    6.4693 C.ar      1 <0>        -0.1117
     23 S1          1.3937    0.8957    5.3799 S.3       1 <0>        -0.0828
     24 C19         1.3288   -3.9443   -0.1970 C.2       1 <0>         0.5622
     25 O3          1.8677   -4.4296    0.7785 O.2       1 <0>        -0.5316
     26 N3          1.3368   -4.6068   -1.3707 N.am      1 <0>        -0.8504
     27 H1         -0.5485    1.9716   -0.0539 H         1 <0>         0.0796
     28 H2         -2.0940    1.2237   -0.5231 H         1 <0>         0.0787
     29 H3         -1.6411    1.3280    1.1951 H         1 <0>         0.0661
     30 H4         -1.0537   -0.4075   -1.9847 H         1 <0>         0.1373
     31 H5          0.0501   -2.5970   -2.1564 H         1 <0>         0.1304
     32 H6          1.1322   -2.3677    1.9863 H         1 <0>         0.1530
     33 H7          0.0779    0.9613    2.4213 H         1 <0>         0.4152
     34 H8         -1.1685    1.8719    5.5963 H         1 <0>         0.1192
     35 H9         -1.6104    1.3940    3.9203 H         1 <0>         0.1087
     36 H10        -3.1438    0.6574    6.1200 H         1 <0>         0.1291
     37 H11        -3.0055   -0.3736    4.6615 H         1 <0>         0.1192
     38 H12         0.1803   -2.9832    7.6865 H         1 <0>         0.1326
     39 H13         2.3488   -3.4792    8.6868 H         1 <0>         0.1366
     40 H14         4.2864   -2.0130    8.2964 H         1 <0>         0.1413
     41 H15         4.0278   -0.0169    6.8547 H         1 <0>         0.1392
     42 H16         0.9068   -4.2196   -2.1491 H         1 <0>         0.4007
     43 H17         1.7727   -5.4709   -1.4369 H         1 <0>         0.4069
@<TRIPOS>BOND
     1    1    2 1
     2    1   27 1
     3    1   28 1
     4    1   29 1
     5    2    7 ar
     6    2    3 ar
     7    3    4 ar
     8    3   30 1
     9    4    5 ar
    10    4   31 1
    11    5    6 ar
    12    5   24 1
    13    6    7 ar
    14    6   32 1
    15    7    8 1
    16    8    9 am
    17    8   33 1
    18    9   10 2
    19    9   11 1
    20   11   16 1
    21   11   23 1
    22   11   12 1
    23   12   13 1
    24   12   34 1
    25   12   35 1
    26   13   14 1
    27   13   36 1
    28   13   37 1
    29   14   15 2
    30   14   16 am
    31   16   17 1
    32   17   22 ar
    33   17   18 ar
    34   18   19 ar
    35   18   38 1
    36   19   20 ar
    37   19   39 1
    38   20   21 ar
    39   20   40 1
    40   21   22 ar
    41   21   41 1
    42   22   23 1
    43   24   25 2
    44   24   26 am
    45   26   42 1
    46   26   43 1
@<TRIPOS>MOLECULE
ZINC04477694
   39    41     0     0     0
SMALL
USER_CHARGES
3-[(4-fluorophenyl)methyl]-5-methyl-5-(4-nitrophenyl)-imidazolidine-2,4-dione
@<TRIPOS>ATOM
      1 C1         -0.0127    1.0858    0.0080 C.3       1 <0>        -0.1468
      2 C2         -0.7288    1.5792    1.2668 C.3       1 <0>         0.1604
      3 C3         -0.0257    1.0766    2.5121 C.2       1 <0>         0.5366
      4 O1          1.1127    1.3127    2.8559 O.2       1 <0>        -0.4505
      5 N1         -0.9294    0.3135    3.1579 N.am      1 <0>        -0.5690
      6 C4         -2.0937    0.2645    2.5006 C.2       1 <0>         0.7058
      7 O2         -3.0617   -0.3608    2.8867 O.2       1 <0>        -0.5264
      8 N2         -2.0733    0.9851    1.3648 N.am      1 <0>        -0.7188
      9 C5         -0.6693   -0.3767    4.4237 C.3       1 <0>         0.1609
     10 C6         -1.0328    0.5279    5.5729 C.ar      1 <0>        -0.1376
     11 C7         -0.0827    1.3750    6.1123 C.ar      1 <0>        -0.0666
     12 C8         -0.4162    2.2085    7.1631 C.ar      1 <0>        -0.1580
     13 C9         -1.6996    2.1872    7.6824 C.ar      1 <0>         0.1126
     14 C10        -2.6488    1.3346    7.1448 C.ar      1 <0>        -0.1576
     15 C11        -2.3144    0.5058    6.0907 C.ar      1 <0>        -0.0613
     16 F1         -2.0254    2.9982    8.7127 F         1 <0>        -0.1356
     17 C12        -0.8088    3.0841    1.2740 C.ar      1 <0>        -0.0471
     18 C13         0.1929    3.8267    1.8706 C.ar      1 <0>        -0.1064
     19 C14         0.1219    5.2072    1.8729 C.ar      1 <0>        -0.0466
     20 C15        -0.9560    5.8448    1.2878 C.ar      1 <0>        -0.0351
     21 C16        -1.9603    5.1021    0.6957 C.ar      1 <0>        -0.0505
     22 C17        -1.8867    3.7217    0.6888 C.ar      1 <0>        -0.0958
     23 N3         -1.0350    7.3229    1.2956 N.pl3     1 <0>         0.0239
     24 O3         -1.9849    7.8847    0.7804 O.2       1 <0>        -0.1524
     25 O4         -0.1500    7.9773    1.8173 O.3       1 <0>        -0.1516
     26 H1          0.0021   -0.0041    0.0020 H         1 <0>         0.0809
     27 H2          1.0099    1.4631    0.0003 H         1 <0>         0.0909
     28 H3         -0.5399    1.4469   -0.8751 H         1 <0>         0.0866
     29 H4         -2.8019    1.0928    0.7335 H         1 <0>         0.4426
     30 H5         -1.2698   -1.2850    4.4723 H         1 <0>         0.1123
     31 H6          0.3876   -0.6360    4.4857 H         1 <0>         0.1102
     32 H7          0.9193    1.3885    5.7097 H         1 <0>         0.1378
     33 H8          0.3250    2.8732    7.5816 H         1 <0>         0.1395
     34 H9         -3.6502    1.3174    7.5489 H         1 <0>         0.1395
     35 H10        -3.0546   -0.1596    5.6714 H         1 <0>         0.1402
     36 H11         1.0329    3.3283    2.3316 H         1 <0>         0.1642
     37 H12         0.9065    5.7875    2.3358 H         1 <0>         0.1606
     38 H13        -2.8026    5.6003    0.2388 H         1 <0>         0.1604
     39 H14        -2.6716    3.1414    0.2265 H         1 <0>         0.1480
@<TRIPOS>BOND
     1    1    2 1
     2    1   26 1
     3    1   27 1
     4    1   28 1
     5    2    8 1
     6    2    3 1
     7    2   17 1
     8    3    4 2
     9    3    5 am
    10    5    6 am
    11    5    9 1
    12    6    7 2
    13    6    8 am
    14    8   29 1
    15    9   10 1
    16    9   30 1
    17    9   31 1
    18   10   15 ar
    19   10   11 ar
    20   11   12 ar
    21   11   32 1
    22   12   13 ar
    23   12   33 1
    24   13   14 ar
    25   13   16 1
    26   14   15 ar
    27   14   34 1
    28   15   35 1
    29   17   22 ar
    30   17   18 ar
    31   18   19 ar
    32   18   36 1
    33   19   20 ar
    34   19   37 1
    35   20   21 ar
    36   20   23 1
    37   21   22 ar
    38   21   38 1
    39   22   39 1
    40   23   24 2
    41   23   25 1
@<TRIPOS>MOLECULE
ZINC12340918
   35    38     0     0     0
SMALL
USER_CHARGES
N-(2,1,3-benzothiadiazol-5-yl)-4-pyrazol-1-yl-benzenesulfonamide
@<TRIPOS>ATOM
      1 C1          1.9464    2.3071   -8.5311 C.2       1 <0>        -0.2515
      2 C2          2.4695    3.6042   -8.4895 C.2       1 <0>         0.0665
      3 N1          3.0253    3.7844   -7.3184 N.2       1 <0>        -0.2871
      4 N2          2.8739    2.6063   -6.5758 N.pl3     1 <0>        -0.3357
      5 C3          2.2125    1.7123   -7.3452 C.2       1 <0>         0.0529
      6 C4          3.3321    2.3904   -5.2687 C.ar      1 <0>         0.2276
      7 C5          4.0057    3.3985   -4.5922 C.ar      1 <0>        -0.1439
      8 C6          4.4564    3.1826   -3.3046 C.ar      1 <0>         0.0110
      9 C7          4.2374    1.9638   -2.6892 C.ar      1 <0>        -0.6952
     10 C8          3.5719    0.9559   -3.3624 C.ar      1 <0>         0.0148
     11 C9          3.1138    1.1677   -4.6481 C.ar      1 <0>        -0.1659
     12 S1          4.8139    1.6922   -1.0465 S.o2      1 <0>         2.6946
     13 O1          5.8877    2.5992   -0.8378 O.2       1 <0>        -0.9415
     14 O2          4.9633    0.2871   -0.8957 O.2       1 <0>        -0.9417
     15 N3          3.5994    2.1520   -0.0190 N.pl3     1 <0>        -1.0540
     16 C10         2.3888    1.4545   -0.0120 C.ar      1 <0>         0.1733
     17 C11         2.4043    0.0535   -0.0196 C.ar      1 <0>        -0.1330
     18 C12         1.2583   -0.6657   -0.0128 C.ar      1 <0>        -0.0365
     19 C13         0.0021   -0.0041    0.0020 C.ar      1 <0>         0.0535
     20 C14        -0.0177    1.4559    0.0100 C.ar      1 <0>         0.0758
     21 C15         1.2194    2.1499    0.0020 C.ar      1 <0>        -0.0829
     22 N4         -1.2585    1.9391    0.0299 N.2       1 <0>        -0.5518
     23 S2         -2.2126    0.6961    0.0269 S.3       1 <0>         0.7543
     24 N5         -1.2253   -0.5205    0.0110 N.2       1 <0>        -0.5446
     25 H1          1.4255    1.8586   -9.3641 H         1 <0>         0.1597
     26 H2          2.4228    4.3314   -9.2866 H         1 <0>         0.1953
     27 H3          1.9431    0.7052   -7.0629 H         1 <0>         0.1815
     28 H4          4.1773    4.3505   -5.0725 H         1 <0>         0.1498
     29 H5          4.9801    3.9666   -2.7778 H         1 <0>         0.1520
     30 H6          3.4065    0.0034   -2.8809 H         1 <0>         0.1524
     31 H7          2.5902    0.3816   -5.1718 H         1 <0>         0.1417
     32 H8          3.7284    2.9056    0.5779 H         1 <0>         0.4323
     33 H9          3.3523   -0.4639   -0.0309 H         1 <0>         0.1763
     34 H10         1.2992   -1.7449   -0.0190 H         1 <0>         0.1521
     35 H11         1.2331    3.2298    0.0073 H         1 <0>         0.1478
@<TRIPOS>BOND
     1    1    5 2
     2    1    2 1
     3    1   25 1
     4    2    3 2
     5    2   26 1
     6    3    4 1
     7    4    5 1
     8    4    6 1
     9    5   27 1
    10    6   11 ar
    11    6    7 ar
    12    7    8 ar
    13    7   28 1
    14    8    9 ar
    15    8   29 1
    16    9   10 ar
    17    9   12 1
    18   10   11 ar
    19   10   30 1
    20   11   31 1
    21   12   13 2
    22   12   14 2
    23   12   15 1
    24   15   16 1
    25   15   32 1
    26   16   21 ar
    27   16   17 ar
    28   17   18 ar
    29   17   33 1
    30   18   19 ar
    31   18   34 1
    32   19   24 2
    33   19   20 ar
    34   20   21 ar
    35   20   22 2
    36   21   35 1
    37   22   23 1
    38   23   24 1
@<TRIPOS>MOLECULE
ZINC04172057
   43    45     0     0     0
SMALL
USER_CHARGES

@<TRIPOS>ATOM
      1 C1          0.3927    2.3587    1.7121 C.3       1 <0>        -0.0903
      2 C2          0.4912    0.9062    1.3225 C.2       1 <0>         0.1047
      3 N1          0.9736    0.4236    0.2202 N.2       1 <0>        -0.3057
      4 N2          0.8738   -0.9669    0.1594 N.2       1 <0>        -0.3080
      5 C3          0.2820   -1.4509    1.1797 C.2       1 <0>         0.1312
      6 C4          0.0553   -0.2839    2.1363 C.3       1 <0>        -0.1370
      7 H1          0.6547   -0.3856    3.0410 H         1 <0>         0.1405
      8 C5         -1.4431   -0.2749    2.4433 C.3       1 <0>        -0.0069
      9 H2         -2.0038   -0.0636    1.5327 H         1 <0>         0.1190
     10 C6         -1.8305   -1.6576    2.9800 C.3       1 <0>        -0.1211
     11 H3         -2.8741   -1.6382    3.2940 H         1 <0>         0.1182
     12 C7         -1.6487   -2.7409    1.9198 C.3       1 <0>         0.1508
     13 C8         -0.1738   -2.8487    1.5107 C.3       1 <0>        -0.0899
     14 C9         -2.1203   -4.0836    2.4816 C.3       1 <0>        -0.1845
     15 O1         -2.4301   -2.4126    0.7693 O.3       1 <0>        -0.5531
     16 C10        -0.9647   -1.9844    4.1693 C.2       1 <0>         0.3605
     17 O2          0.1906   -2.2965    4.0076 O.2       1 <0>        -0.4413
     18 C11        -1.5406   -1.9217    5.5605 C.3       1 <0>        -0.2081
     19 C12        -1.7432    0.7764    3.4805 C.ar      1 <0>        -0.0372
     20 C13        -0.9937    0.8367    4.6405 C.ar      1 <0>        -0.1231
     21 C14        -1.2690    1.8010    5.5919 C.ar      1 <0>        -0.0451
     22 C15        -2.2935    2.7053    5.3832 C.ar      1 <0>        -0.0457
     23 C16        -3.0424    2.6455    4.2228 C.ar      1 <0>        -0.0462
     24 C17        -2.7643    1.6839    3.2694 C.ar      1 <0>        -0.1040
     25 N3         -2.5889    3.7372    6.4024 N.pl3     1 <0>         0.0306
     26 O3         -1.9341    3.7892    7.4174 O.2       1 <0>        -0.1538
     27 O4         -3.4849    4.5281    6.2198 O.3       1 <0>        -0.1526
     28 H4          1.3029    2.6579    2.2318 H         1 <0>         0.0918
     29 H5          0.2687    2.9675    0.8165 H         1 <0>         0.0913
     30 H6         -0.4648    2.5011    2.3698 H         1 <0>         0.0801
     31 H7         -0.0667   -3.4935    0.6385 H         1 <0>         0.0992
     32 H8          0.4075   -3.2444    2.3436 H         1 <0>         0.1298
     33 H9         -3.1436   -3.9865    2.8441 H         1 <0>         0.0754
     34 H10        -2.0830   -4.8391    1.6968 H         1 <0>         0.0750
     35 H11        -1.4702   -4.3818    3.3041 H         1 <0>         0.0696
     36 H12        -2.3643   -3.0578    0.0519 H         1 <0>         0.3881
     37 H13        -1.8751   -2.9148    5.8604 H         1 <0>         0.1051
     38 H14        -0.7768   -1.5706    6.2545 H         1 <0>         0.0942
     39 H15        -2.3864   -1.2343    5.5730 H         1 <0>         0.0867
     40 H16        -0.1933    0.1302    4.8035 H         1 <0>         0.1426
     41 H17        -0.6839    1.8477    6.4985 H         1 <0>         0.1577
     42 H18        -3.8431    3.3518    4.0599 H         1 <0>         0.1590
     43 H19        -3.3470    1.6396    2.3612 H         1 <0>         0.1529
@<TRIPOS>BOND
     1    1    2 1
     2    1   28 1
     3    1   29 1
     4    1   30 1
     5    2    6 1
     6    2    3 2
     7    3    4 1
     8    4    5 2
     9    5   13 1
    10    5    6 1
    11    6    7 1
    12    6    8 1
    13    8    9 1
    14    8   10 1
    15    8   19 1
    16   10   11 1
    17   10   12 1
    18   10   16 1
    19   12   13 1
    20   12   14 1
    21   12   15 1
    22   13   31 1
    23   13   32 1
    24   14   33 1
    25   14   34 1
    26   14   35 1
    27   15   36 1
    28   16   17 2
    29   16   18 1
    30   18   37 1
    31   18   38 1
    32   18   39 1
    33   19   24 ar
    34   19   20 ar
    35   20   21 ar
    36   20   40 1
    37   21   22 ar
    38   21   41 1
    39   22   23 ar
    40   22   25 1
    41   23   24 ar
    42   23   42 1
    43   24   43 1
    44   25   26 2
    45   25   27 1
@<TRIPOS>MOLECULE
ZINC04414616
   42    44     0     0     0
SMALL
USER_CHARGES

@<TRIPOS>ATOM
      1 C1         -0.0187    1.5258    0.0104 C.3       1 <0>        -0.1504
      2 C2          0.0021   -0.0041    0.0020 C.3       1 <0>        -0.0829
      3 H1          0.5123   -0.3556   -0.8948 H         1 <0>         0.0762
      4 C3         -1.4333   -0.5336    0.0129 C.3       1 <0>        -0.1208
      5 C4         -1.4126   -2.0635    0.0045 C.3       1 <0>        -0.1170
      6 C5         -0.6726   -2.5703    1.2440 C.3       1 <0>        -0.1334
      7 C6          0.7628   -2.0407    1.2331 C.3       1 <0>         0.1450
      8 H2          1.2730   -2.3923    0.3363 H         1 <0>         0.1093
      9 C7          0.7421   -0.5109    1.2415 C.3       1 <0>        -0.0960
     10 H3          1.7647   -0.1336    1.2338 H         1 <0>         0.0806
     11 C8          0.0259   -0.0175    2.5003 C.3       1 <0>        -0.1596
     12 N1          1.4714   -2.5260    2.4200 N.pl3     1 <0>        -0.6543
     13 C9          2.0695   -3.7672    2.4058 C.2       1 <0>         0.5025
     14 N2          2.0143   -4.5086    1.3454 N.2       1 <0>        -0.8626
     15 S1          2.8449   -5.9112    1.7243 S.o2      1 <0>         2.5824
     16 O1          4.0260   -5.9417    0.9348 O.2       1 <0>        -0.9274
     17 O2          1.9030   -6.9744    1.7663 O.2       1 <0>        -0.9263
     18 C10         3.3191   -5.5424    3.3914 C.ar      1 <0>        -0.6251
     19 C11         2.7830   -4.2627    3.5929 C.ar      1 <0>        -0.0620
     20 C12         2.9910   -3.6659    4.8455 C.ar      1 <0>        -0.0578
     21 C13         3.7013   -4.3283    5.8217 C.ar      1 <0>        -0.0154
     22 C14         4.2231   -5.5884    5.5914 C.ar      1 <0>        -0.0342
     23 C15         4.0185   -6.1985    4.3614 C.ar      1 <0>         0.0704
     24 N3          4.9849   -6.2853    6.6519 N.pl3     1 <0>         0.0272
     25 O3          5.1532   -5.7532    7.7244 O.2       1 <0>        -0.1372
     26 O4          5.4390   -7.3867    6.4457 O.3       1 <0>        -0.1350
     27 H4          1.0039    1.9031    0.0027 H         1 <0>         0.0556
     28 H5         -0.5459    1.8868   -0.8726 H         1 <0>         0.0585
     29 H6         -0.5289    1.8773    0.9072 H         1 <0>         0.0591
     30 H7         -1.9435   -0.1821    0.9097 H         1 <0>         0.0674
     31 H8         -1.9605   -0.1726   -0.8702 H         1 <0>         0.0671
     32 H9         -2.4352   -2.4408    0.0122 H         1 <0>         0.0698
     33 H10        -0.9024   -2.4150   -0.8923 H         1 <0>         0.0686
     34 H11        -1.1828   -2.2188    2.1408 H         1 <0>         0.0698
     35 H12        -0.6578   -3.6602    1.2380 H         1 <0>         0.0754
     36 H13        -0.9967   -0.3948    2.5081 H         1 <0>         0.0695
     37 H14         0.5531   -0.3786    3.3834 H         1 <0>         0.0474
     38 H15         0.0111    1.0724    2.5063 H         1 <0>         0.0686
     39 H16         1.5195   -1.9736    3.2158 H         1 <0>         0.4139
     40 H17         2.5923   -2.6821    5.0450 H         1 <0>         0.1637
     41 H18         3.8536   -3.8567    6.7813 H         1 <0>         0.1753
     42 H19         4.4214   -7.1820    4.1693 H         1 <0>         0.1742
@<TRIPOS>BOND
     1    1    2 1
     2    1   27 1
     3    1   28 1
     4    1   29 1
     5    2    3 1
     6    2    9 1
     7    2    4 1
     8    4    5 1
     9    4   30 1
    10    4   31 1
    11    5    6 1
    12    5   32 1
    13    5   33 1
    14    6    7 1
    15    6   34 1
    16    6   35 1
    17    7    8 1
    18    7    9 1
    19    7   12 1
    20    9   10 1
    21    9   11 1
    22   11   36 1
    23   11   37 1
    24   11   38 1
    25   12   13 1
    26   12   39 1
    27   13   19 1
    28   13   14 2
    29   14   15 1
    30   15   16 2
    31   15   17 2
    32   15   18 1
    33   18   23 ar
    34   18   19 ar
    35   19   20 ar
    36   20   21 ar
    37   20   40 1
    38   21   22 ar
    39   21   41 1
    40   22   23 ar
    41   22   24 1
    42   23   42 1
    43   24   25 2
    44   24   26 1
@<TRIPOS>MOLECULE
ZINC32074771
   45    48     0     0     0
SMALL
USER_CHARGES

@<TRIPOS>ATOM
      1 C1         -0.0490    1.5022    0.0092 C.3       1 <0>        -0.1210
      2 C2         -0.0126   -0.0043    0.0015 C.ar      1 <0>        -0.0755
      3 C3         -0.1132   -0.6921   -1.1936 C.ar      1 <0>        -0.1192
      4 C4         -0.0798   -2.0738   -1.2007 C.ar      1 <0>        -0.1145
      5 C5          0.0547   -2.7682   -0.0127 C.ar      1 <0>        -0.1223
      6 C6          0.1561   -2.0806    1.1819 C.ar      1 <0>        -0.1077
      7 C7          0.1270   -0.6983    1.1886 C.ar      1 <0>        -0.0823
      8 C8          0.2430    0.0515    2.4906 C.3       1 <0>         0.0400
      9 H1          0.1211    1.1202    2.3139 H         1 <0>         0.1147
     10 C9          1.6125   -0.2178    3.1259 C.3       1 <0>        -0.1067
     11 C10         1.6601   -1.5691    3.7774 C.2       1 <0>         0.4111
     12 N1          0.6356   -2.1256    4.3520 N.2       1 <0>        -0.5486
     13 C11        -0.5672   -1.4837    4.3295 C.2       1 <0>         0.3277
     14 C12        -0.8115   -0.4311    3.4545 C.2       1 <0>        -0.2840
     15 C13        -2.1050    0.0082    3.6648 C.2       1 <0>         0.1288
     16 N2         -2.6477   -0.7313    4.6055 N.2       1 <0>        -0.2838
     17 N3         -1.7043   -1.6851    5.0347 N.pl3     1 <0>        -0.2987
     18 C14        -1.9063   -2.6642    6.0125 C.ar      1 <0>         0.2801
     19 C15        -2.8694   -2.4747    7.0030 C.ar      1 <0>        -0.0739
     20 C16        -3.0330   -3.4725    7.9489 C.ar      1 <0>        -0.1137
     21 C17        -2.2251   -4.6039    7.8520 C.ar      1 <0>         0.2554
     22 N4         -1.3368   -4.6973    6.8768 N.ar      1 <0>        -0.2722
     23 N5         -1.1882   -3.7749    5.9968 N.ar      1 <0>        -0.1892
     24 O1         -2.3495   -5.6079    8.7571 O.3       1 <0>        -0.2963
     25 C18        -1.4885   -6.7370    8.5959 C.3       1 <0>         0.0324
     26 C19        -2.7787    1.1439    2.9386 C.3       1 <0>        -0.0773
     27 O2          2.8287   -2.2424    3.7656 O.3       1 <0>        -0.4527
     28 H2          0.9696    1.8902    0.0120 H         1 <0>         0.0733
     29 H3         -0.5708    1.8576   -0.8794 H         1 <0>         0.0685
     30 H4         -0.5721    1.8484    0.9006 H         1 <0>         0.0707
     31 H5         -0.2182   -0.1497   -2.1216 H         1 <0>         0.1230
     32 H6         -0.1590   -2.6111   -2.1342 H         1 <0>         0.1216
     33 H7          0.0801   -3.8479   -0.0182 H         1 <0>         0.1193
     34 H8          0.2608   -2.6230    2.1100 H         1 <0>         0.1171
     35 H9          2.3797   -0.1676    2.3533 H         1 <0>         0.1121
     36 H10         1.8137    0.5468    3.8763 H         1 <0>         0.1131
     37 H11        -3.4690   -1.5769    7.0317 H         1 <0>         0.1684
     38 H12        -3.7642   -3.3768    8.7379 H         1 <0>         0.1680
     39 H13        -1.6686   -7.1953    7.6235 H         1 <0>         0.0647
     40 H14        -0.4495   -6.4135    8.6583 H         1 <0>         0.0648
     41 H15        -1.6908   -7.4634    9.3830 H         1 <0>         0.1050
     42 H16        -3.2803    0.7604    2.0502 H         1 <0>         0.0842
     43 H17        -3.5114    1.6118    3.5961 H         1 <0>         0.0794
     44 H18        -2.0316    1.8810    2.6443 H         1 <0>         0.0817
     45 H19         2.7903   -3.1047    4.2016 H         1 <0>         0.4142
@<TRIPOS>BOND
     1    1    2 1
     2    1   28 1
     3    1   29 1
     4    1   30 1
     5    2    7 ar
     6    2    3 ar
     7    3    4 ar
     8    3   31 1
     9    4    5 ar
    10    4   32 1
    11    5    6 ar
    12    5   33 1
    13    6    7 ar
    14    6   34 1
    15    7    8 1
    16    8    9 1
    17    8   14 1
    18    8   10 1
    19   10   11 1
    20   10   35 1
    21   10   36 1
    22   11   12 2
    23   11   27 1
    24   12   13 1
    25   13   17 1
    26   13   14 2
    27   14   15 1
    28   15   16 2
    29   15   26 1
    30   16   17 1
    31   17   18 1
    32   18   23 ar
    33   18   19 ar
    34   19   20 ar
    35   19   37 1
    36   20   21 ar
    37   20   38 1
    38   21   22 ar
    39   21   24 1
    40   22   23 ar
    41   24   25 1
    42   25   39 1
    43   25   40 1
    44   25   41 1
    45   26   42 1
    46   26   43 1
    47   26   44 1
    48   27   45 1
@<TRIPOS>MOLECULE
ZINC65689355
   52    53     0     0     0
SMALL
USER_CHARGES

@<TRIPOS>ATOM
      1 C1         -0.0182    1.5231    0.0065 C.3       1 <0>        -0.1525
      2 C2          0.0038   -0.0067   -0.0025 C.3       1 <0>         0.0793
      3 O1          0.6940   -0.4800    1.1559 O.3       1 <0>        -0.3648
      4 C3          0.8027   -1.8142    1.3001 C.2       1 <0>         0.6508
      5 O2          0.3246   -2.5565    0.4653 O.2       1 <0>        -0.5694
      6 N1          1.4418   -2.3264    2.3704 N.am      1 <0>        -0.5959
      7 C4          2.0197   -1.4418    3.3913 C.3       1 <0>         0.1167
      8 C5          3.4944   -1.8090    3.5843 C.3       1 <0>        -0.1430
      9 C6          3.6064   -3.3004    3.9086 C.3       1 <0>         0.1617
     10 C7          3.0531   -4.1210    2.7413 C.3       1 <0>        -0.1448
     11 C8          1.5685   -3.7801    2.5417 C.3       1 <0>         0.1301
     12 N2          5.0128   -3.6483    4.1264 N.am      1 <0>        -0.7430
     13 C9          5.3335   -4.7122    4.8891 C.2       1 <0>         0.7112
     14 O3          4.4616   -5.3278    5.4713 O.2       1 <0>        -0.5829
     15 N3          6.6208   -5.0937    5.0064 N.am      1 <0>        -0.6311
     16 C10         7.7042   -4.2987    4.4066 C.3       1 <0>         0.0823
     17 C11         8.5923   -5.2367    3.5812 C.3       1 <0>         0.0717
     18 O4          8.9917   -6.3429    4.3939 O.3       1 <0>        -0.3657
     19 C12         7.9078   -7.1569    4.8481 C.3       1 <0>         0.0994
     20 C13         6.9851   -6.3142    5.7432 C.3       1 <0>         0.1085
     21 C14         7.1209   -7.6785    3.6441 C.3       1 <0>        -0.1737
     22 C15         8.4571   -8.3376    5.6513 C.3       1 <0>        -0.1380
     23 C16         9.8328   -4.4782    3.1049 C.3       1 <0>        -0.1456
     24 H1          1.0041    1.9012    0.0001 H         1 <0>         0.0663
     25 H2         -0.5447    1.8840   -0.8771 H         1 <0>         0.0827
     26 H3         -0.5297    1.8739    0.9028 H         1 <0>         0.0669
     27 H4         -1.0185   -0.3849    0.0040 H         1 <0>         0.0684
     28 H5          0.5154   -0.3575   -0.8988 H         1 <0>         0.0678
     29 H6          1.9411   -0.4053    3.0635 H         1 <0>         0.0997
     30 H7          1.4848   -1.5713    4.3322 H         1 <0>         0.0773
     31 H8          4.0458   -1.5933    2.6691 H         1 <0>         0.0743
     32 H9          3.9101   -1.2258    4.4060 H         1 <0>         0.0868
     33 H10         3.0345   -3.5200    4.8101 H         1 <0>         0.0953
     34 H11         3.6086   -3.8835    1.8341 H         1 <0>         0.0699
     35 H12         3.1546   -5.1834    2.9630 H         1 <0>         0.0849
     36 H13         0.9976   -4.0964    3.4146 H         1 <0>         0.0786
     37 H14         1.1921   -4.2869    1.6531 H         1 <0>         0.1010
     38 H15         5.7131   -3.1129    3.7216 H         1 <0>         0.3946
     39 H16         7.2808   -3.5303    3.7597 H         1 <0>         0.0840
     40 H17         8.2957   -3.8313    5.1938 H         1 <0>         0.0798
     41 H18         8.0342   -5.6012    2.7188 H         1 <0>         0.0673
     42 H19         7.5055   -6.0464    6.6628 H         1 <0>         0.0744
     43 H20         6.0853   -6.8812    5.9819 H         1 <0>         0.1031
     44 H21         7.7790   -8.2716    3.0092 H         1 <0>         0.0659
     45 H22         6.2947   -8.2990    3.9912 H         1 <0>         0.0696
     46 H23         6.7283   -6.8363    3.0742 H         1 <0>         0.0580
     47 H24         9.0155   -7.9646    6.5099 H         1 <0>         0.0670
     48 H25         7.6301   -8.9578    5.9973 H         1 <0>         0.0756
     49 H26         9.1169   -8.9316    5.0190 H         1 <0>         0.0694
     50 H27        10.3910   -4.1162    3.9683 H         1 <0>         0.0673
     51 H28        10.4638   -5.1458    2.5181 H         1 <0>         0.0696
     52 H29         9.5273   -3.6323    2.4891 H         1 <0>         0.0734
@<TRIPOS>BOND
     1    1    2 1
     2    1   24 1
     3    1   25 1
     4    1   26 1
     5    2    3 1
     6    2   27 1
     7    2   28 1
     8    3    4 1
     9    4    5 2
    10    4    6 am
    11    6   11 1
    12    6    7 1
    13    7    8 1
    14    7   29 1
    15    7   30 1
    16    8    9 1
    17    8   31 1
    18    8   32 1
    19    9   10 1
    20    9   12 1
    21    9   33 1
    22   10   11 1
    23   10   34 1
    24   10   35 1
    25   11   36 1
    26   11   37 1
    27   12   13 am
    28   12   38 1
    29   13   14 2
    30   13   15 am
    31   15   20 1
    32   15   16 1
    33   16   17 1
    34   16   39 1
    35   16   40 1
    36   17   18 1
    37   17   23 1
    38   17   41 1
    39   18   19 1
    40   19   20 1
    41   19   21 1
    42   19   22 1
    43   20   42 1
    44   20   43 1
    45   21   44 1
    46   21   45 1
    47   21   46 1
    48   22   47 1
    49   22   48 1
    50   22   49 1
    51   23   50 1
    52   23   51 1
    53   23   52 1
@<TRIPOS>MOLECULE
ZINC14165651
   45    47     0     0     0
SMALL
USER_CHARGES

@<TRIPOS>ATOM
      1 C1          1.8085   -1.7390   -1.8176 C.3       1 <0>        -0.1446
      2 C2          0.8914   -1.6707   -0.5948 C.3       1 <0>         0.0921
      3 H1          1.3000   -2.2924    0.2018 H         1 <0>         0.0671
      4 C3         -0.5035   -2.1759   -0.9731 C.3       1 <0>         0.0161
      5 N1         -1.4001   -2.0359    0.1835 N.3       1 <0>        -0.5170
      6 C4         -1.4729   -0.6338    0.6195 C.3       1 <0>         0.0224
      7 C5         -0.0683   -0.1440    0.9818 C.3       1 <0>         0.0915
      8 H2          0.3121   -0.7209    1.8248 H         1 <0>         0.0670
      9 O1          0.7973   -0.3169   -0.1435 O.3       1 <0>        -0.3802
     10 C6         -0.1256    1.3372    1.3607 C.3       1 <0>        -0.1452
     11 C7         -2.7372   -2.5629   -0.1201 C.3       1 <0>         0.0660
     12 H3         -3.4348   -2.2545    0.6586 H         1 <0>         0.1108
     13 C8         -3.2062   -2.0168   -1.4702 C.3       1 <0>        -0.1850
     14 C9         -2.6827   -4.0678   -0.1784 C.2       1 <0>         0.5229
     15 O2         -1.6121   -4.6337   -0.2469 O.2       1 <0>        -0.4985
     16 N2         -3.8237   -4.7848   -0.1544 N.am      1 <0>        -0.6718
     17 C10        -3.7708   -6.1835   -0.0963 C.ar      1 <0>         0.1587
     18 C11        -4.7434   -6.9417   -0.7382 C.ar      1 <0>        -0.1316
     19 C12        -4.6969   -8.3202   -0.6848 C.ar      1 <0>        -0.0827
     20 C13        -3.6772   -8.9518    0.0112 C.ar      1 <0>         0.0743
     21 C14        -2.6988   -8.1931    0.6571 C.ar      1 <0>         0.1114
     22 C15        -2.7452   -6.8091    0.5967 C.ar      1 <0>        -0.1079
     23 N3         -1.8235   -9.0935    1.2598 N.am      1 <0>        -0.6402
     24 H4         -1.0404   -8.8601    1.7826 H         1 <0>         0.4370
     25 C16        -2.2489  -10.3427    0.9935 C.2       1 <0>         0.6850
     26 O3         -1.7068  -11.3635    1.3740 O.2       1 <0>        -0.5538
     27 N4         -3.3650  -10.2913    0.2423 N.am      1 <0>        -0.6413
     28 H5         -3.8665  -11.0554   -0.0825 H         1 <0>         0.4363
     29 H6          2.8009   -1.3778   -1.5480 H         1 <0>         0.0669
     30 H7          1.8786   -2.7708   -2.1620 H         1 <0>         0.0734
     31 H8          1.3994   -1.1171   -2.6138 H         1 <0>         0.0617
     32 H9         -0.8897   -1.5886   -1.8062 H         1 <0>         0.0460
     33 H10        -0.4444   -3.2250   -1.2629 H         1 <0>         0.1051
     34 H11        -1.8746   -0.0219   -0.1882 H         1 <0>         0.0481
     35 H12        -2.1214   -0.5572    1.4922 H         1 <0>         0.0870
     36 H13        -0.7877    1.4680    2.2166 H         1 <0>         0.0729
     37 H14         0.8746    1.6853    1.6185 H         1 <0>         0.0679
     38 H15        -0.5046    1.9137    0.5168 H         1 <0>         0.0628
     39 H16        -4.1983   -2.4079   -1.6955 H         1 <0>         0.0708
     40 H17        -3.2456   -0.9284   -1.4281 H         1 <0>         0.0728
     41 H18        -2.5086   -2.3253   -2.2490 H         1 <0>         0.0708
     42 H19        -4.6814   -4.3325   -0.1773 H         1 <0>         0.4135
     43 H20        -5.5380   -6.4506   -1.2802 H         1 <0>         0.1383
     44 H21        -5.4541   -8.9064   -1.1842 H         1 <0>         0.1382
     45 H22        -1.9873   -6.2196    1.0911 H         1 <0>         0.1450
@<TRIPOS>BOND
     1    1    2 1
     2    1   29 1
     3    1   30 1
     4    1   31 1
     5    2    3 1
     6    2    9 1
     7    2    4 1
     8    4    5 1
     9    4   32 1
    10    4   33 1
    11    5    6 1
    12    5   11 1
    13    6    7 1
    14    6   34 1
    15    6   35 1
    16    7    8 1
    17    7    9 1
    18    7   10 1
    19   10   36 1
    20   10   37 1
    21   10   38 1
    22   11   12 1
    23   11   13 1
    24   11   14 1
    25   13   39 1
    26   13   40 1
    27   13   41 1
    28   14   15 2
    29   14   16 am
    30   16   17 1
    31   16   42 1
    32   17   22 ar
    33   17   18 ar
    34   18   19 ar
    35   18   43 1
    36   19   20 ar
    37   19   44 1
    38   20   27 1
    39   20   21 ar
    40   21   22 ar
    41   21   23 1
    42   22   45 1
    43   23   24 1
    44   23   25 am
    45   25   26 2
    46   25   27 am
    47   27   28 1
@<TRIPOS>MOLECULE
ZINC46768439
   42    44     0     0     0
SMALL
USER_CHARGES

@<TRIPOS>ATOM
      1 C1         -0.0167    1.3794    0.0096 C.ar      1 <0>        -0.1060
      2 C2          1.1667    2.0884    0.0021 C.ar      1 <0>        -0.0589
      3 C3          2.3848    1.4070   -0.0132 C.ar      1 <0>        -0.1303
      4 C4          2.3966    0.0113   -0.0208 C.ar      1 <0>        -0.0870
      5 C5          1.2061   -0.6856   -0.0132 C.ar      1 <0>        -0.1070
      6 C6          0.0021   -0.0041    0.0020 C.ar      1 <0>        -0.0846
      7 C7         -1.2946   -0.7719    0.0103 C.3       1 <0>         0.1581
      8 N1         -1.7280   -1.0134   -1.3682 N.am      1 <0>        -0.7246
      9 C8         -2.8705   -1.6872   -1.6071 C.2       1 <0>         0.5640
     10 O1         -3.5415   -2.0948   -0.6787 O.2       1 <0>        -0.5353
     11 C9         -3.3071   -1.9304   -2.9958 C.ar      1 <0>        -0.1638
     12 C10        -2.5341   -1.4676   -4.0642 C.ar      1 <0>        -0.0501
     13 C11        -2.9442   -1.6961   -5.3583 C.ar      1 <0>        -0.1639
     14 C12        -4.1269   -2.3869   -5.6032 C.ar      1 <0>         0.2130
     15 C13        -4.8988   -2.8490   -4.5419 C.ar      1 <0>        -0.1648
     16 C14        -4.4915   -2.6290   -3.2454 C.ar      1 <0>        -0.0245
     17 N2         -4.5396   -2.6163   -6.9152 N.am      1 <0>        -0.5741
     18 C15        -5.7665   -3.3246   -7.3306 C.3       1 <0>         0.0549
     19 C16        -5.8788   -2.9363   -8.8240 C.3       1 <0>         0.0389
     20 O2         -4.5123   -2.6217   -9.1559 O.3       1 <0>        -0.3166
     21 C17        -3.8937   -2.2264   -8.0303 C.2       1 <0>         0.6452
     22 O3         -2.8596   -1.5885   -8.0198 O.2       1 <0>        -0.4893
     23 C18         3.6569    2.1603   -0.0218 C.2       1 <0>         0.5614
     24 O4          3.6435    3.3757   -0.0155 O.2       1 <0>        -0.5361
     25 N3          4.8314    1.4994   -0.0366 N.am      1 <0>        -0.8499
     26 H1         -0.9598    1.9054    0.0260 H         1 <0>         0.1345
     27 H2          1.1508    3.1682    0.0077 H         1 <0>         0.1404
     28 H3          3.3358   -0.5219   -0.0330 H         1 <0>         0.1299
     29 H4          1.2138   -1.7656   -0.0191 H         1 <0>         0.1333
     30 H5         -1.1489   -1.7256    0.5176 H         1 <0>         0.0826
     31 H6         -2.0557   -0.1941    0.5345 H         1 <0>         0.0828
     32 H7         -1.1927   -0.6882   -2.1088 H         1 <0>         0.4022
     33 H8         -1.6162   -0.9310   -3.8748 H         1 <0>         0.1319
     34 H9         -2.3475   -1.3385   -6.1843 H         1 <0>         0.1612
     35 H10        -5.8164   -3.3846   -4.7354 H         1 <0>         0.1352
     36 H11        -5.0887   -2.9921   -2.4220 H         1 <0>         0.1445
     37 H12        -5.6496   -4.4024   -7.2175 H         1 <0>         0.1030
     38 H13        -6.6301   -2.9660   -6.7705 H         1 <0>         0.1109
     39 H14        -6.2402   -3.7756   -9.4182 H         1 <0>         0.1297
     40 H15        -6.5210   -2.0651   -8.9525 H         1 <0>         0.1006
     41 H16         4.8421    0.5294   -0.0416 H         1 <0>         0.4014
     42 H17         5.6660    1.9936   -0.0422 H         1 <0>         0.4074
@<TRIPOS>BOND
     1    1    6 ar
     2    1    2 ar
     3    1   26 1
     4    2    3 ar
     5    2   27 1
     6    3    4 ar
     7    3   23 1
     8    4    5 ar
     9    4   28 1
    10    5    6 ar
    11    5   29 1
    12    6    7 1
    13    7    8 1
    14    7   30 1
    15    7   31 1
    16    8    9 am
    17    8   32 1
    18    9   10 2
    19    9   11 1
    20   11   16 ar
    21   11   12 ar
    22   12   13 ar
    23   12   33 1
    24   13   14 ar
    25   13   34 1
    26   14   15 ar
    27   14   17 1
    28   15   16 ar
    29   15   35 1
    30   16   36 1
    31   17   21 am
    32   17   18 1
    33   18   19 1
    34   18   37 1
    35   18   38 1
    36   19   20 1
    37   19   39 1
    38   19   40 1
    39   20   21 1
    40   21   22 2
    41   23   24 2
    42   23   25 am
    43   25   41 1
    44   25   42 1
@<TRIPOS>MOLECULE
ZINC58897885
   43    45     0     0     0
SMALL
USER_CHARGES

@<TRIPOS>ATOM
      1 C1         -0.0247    1.5191    0.0201 C.3       1 <0>        -0.1293
      2 C2          0.0040    0.0124    0.0055 C.2       1 <0>         0.2061
      3 C3         -1.1503   -0.6880    0.0024 C.2       1 <0>        -0.2692
      4 C4         -1.0976   -2.1027   -0.0119 C.2       1 <0>         0.5546
      5 O1         -2.1253   -2.7560   -0.0154 O.2       1 <0>        -0.5059
      6 N1          0.1011   -2.7200   -0.0220 N.am      1 <0>        -0.6592
      7 H1          0.1454   -3.6890   -0.0321 H         1 <0>         0.4332
      8 C5          1.2365   -1.9971   -0.0186 C.2       1 <0>         0.6995
      9 O2          2.3102   -2.5675   -0.0278 O.2       1 <0>        -0.5371
     10 N2          1.2000   -0.6522   -0.0103 N.am      1 <0>        -0.6336
     11 H2          2.0293   -0.1491   -0.0121 H         1 <0>         0.4365
     12 C6         -2.4771    0.0265    0.0143 C.3       1 <0>        -0.0306
     13 C7         -2.9908    0.1724   -1.4194 C.3       1 <0>        -0.1353
     14 C8         -4.3175    0.8870   -1.4075 C.2       1 <0>         0.5172
     15 O3         -4.8044    1.2443   -0.3556 O.2       1 <0>        -0.5128
     16 N3         -4.9631    1.1289   -2.5655 N.am      1 <0>        -0.6760
     17 C9         -6.2383    1.7046   -2.5486 C.ar      1 <0>         0.1745
     18 C10        -6.5598    2.6544   -1.5869 C.ar      1 <0>        -0.1335
     19 C11        -7.8184    3.2235   -1.5700 C.ar      1 <0>        -0.0707
     20 C12        -8.7612    2.8503   -2.5089 C.ar      1 <0>        -0.1549
     21 C13        -8.4460    1.9013   -3.4723 C.ar      1 <0>         0.1610
     22 C14        -7.1812    1.3320   -3.4956 C.ar      1 <0>        -0.1693
     23 N4         -9.4034    1.5231   -4.4242 N.pl3     1 <0>        -0.3980
     24 C15        -9.2203    0.6011   -5.4149 C.2       1 <0>        -0.0173
     25 C16       -10.3638    0.5121   -6.1240 C.2       1 <0>        -0.1880
     26 C17       -11.2872    1.4104   -5.5523 C.2       1 <0>        -0.1890
     27 C18       -10.6760    2.0111   -4.5111 C.2       1 <0>        -0.0140
     28 H3          0.9958    1.9020    0.0156 H         1 <0>         0.0825
     29 H4         -0.5524    1.8809   -0.8623 H         1 <0>         0.1000
     30 H5         -0.5383    1.8640    0.9175 H         1 <0>         0.1045
     31 H6         -3.1941   -0.5484    0.6004 H         1 <0>         0.0923
     32 H7         -2.3538    1.0143    0.4584 H         1 <0>         0.0880
     33 H8         -2.2737    0.7473   -2.0055 H         1 <0>         0.0973
     34 H9         -3.1141   -0.8154   -1.8635 H         1 <0>         0.1028
     35 H10        -4.5438    0.9038   -3.4108 H         1 <0>         0.4133
     36 H11        -5.8252    2.9478   -0.8516 H         1 <0>         0.1453
     37 H12        -8.0662    3.9613   -0.8213 H         1 <0>         0.1369
     38 H13        -9.7443    3.2970   -2.4931 H         1 <0>         0.1319
     39 H14        -6.9323    0.5972   -4.2470 H         1 <0>         0.1331
     40 H15        -8.3157    0.0406   -5.5991 H         1 <0>         0.1635
     41 H16       -10.5398   -0.1298   -6.9746 H         1 <0>         0.1417
     42 H17       -12.3002    1.5829   -5.8845 H         1 <0>         0.1422
     43 H18       -11.1160    2.7519   -3.8600 H         1 <0>         0.1658
@<TRIPOS>BOND
     1    1    2 1
     2    1   28 1
     3    1   29 1
     4    1   30 1
     5    2   10 1
     6    2    3 2
     7    3    4 1
     8    3   12 1
     9    4    5 2
    10    4    6 am
    11    6    7 1
    12    6    8 am
    13    8    9 2
    14    8   10 am
    15   10   11 1
    16   12   13 1
    17   12   31 1
    18   12   32 1
    19   13   14 1
    20   13   33 1
    21   13   34 1
    22   14   15 2
    23   14   16 am
    24   16   17 1
    25   16   35 1
    26   17   22 ar
    27   17   18 ar
    28   18   19 ar
    29   18   36 1
    30   19   20 ar
    31   19   37 1
    32   20   21 ar
    33   20   38 1
    34   21   22 ar
    35   21   23 1
    36   22   39 1
    37   23   27 1
    38   23   24 1
    39   24   25 2
    40   24   40 1
    41   25   26 1
    42   25   41 1
    43   26   27 2
    44   26   42 1
    45   27   43 1
@<TRIPOS>MOLECULE
ZINC32124157
   38    40     0     0     0
SMALL
USER_CHARGES

@<TRIPOS>ATOM
      1 C1         -0.0166    1.3708    0.0096 C.ar      1 <0>        -0.1339
      2 C2          1.1720    2.0846    0.0021 C.ar      1 <0>        -0.0788
      3 C3          2.3775    1.4227   -0.0068 C.ar      1 <0>        -0.1198
      4 C4          2.4214    0.0198   -0.0094 C.ar      1 <0>         0.1689
      5 C5          1.2207   -0.7011   -0.0134 C.ar      1 <0>        -0.1728
      6 C6          0.0021   -0.0041    0.0020 C.ar      1 <0>        -0.0531
      7 C7          1.1671   -2.1668   -0.0438 C.2       1 <0>         0.5577
      8 O1          0.3244   -2.7220    0.6347 O.2       1 <0>        -0.5279
      9 N1          1.9876   -2.9278   -0.7719 N.am      1 <0>        -0.6932
     10 C8          3.0457   -2.3275   -1.5861 C.3       1 <0>         0.1737
     11 H1          3.5830   -3.1100   -2.1219 H         1 <0>         0.1380
     12 C9          3.9949   -1.5940   -0.6805 C.2       1 <0>         0.3855
     13 N2          3.6471   -0.5658   -0.0023 N.2       1 <0>        -0.5746
     14 O2          5.2634   -2.0367   -0.5786 O.3       1 <0>        -0.4544
     15 C10         2.4294   -1.3496   -2.5885 C.3       1 <0>        -0.1700
     16 C11         1.5616   -2.1069   -3.5604 C.2       1 <0>         0.5252
     17 O3          1.4474   -3.3103   -3.4610 O.2       1 <0>        -0.5256
     18 N3          0.9125   -1.4470   -4.5399 N.am      1 <0>        -0.7263
     19 C12         0.0689   -2.1832   -5.4847 C.3       1 <0>         0.2043
     20 C13        -0.5382   -1.2200   -6.4721 C.2       1 <0>        -0.0450
     21 C14         0.0004   -0.8573   -7.6501 C.2       1 <0>        -0.1791
     22 C15        -0.8982    0.0563   -8.2474 C.2       1 <0>        -0.2184
     23 C16        -1.9322    0.1971   -7.3986 C.2       1 <0>        -0.0244
     24 O4         -1.7115   -0.5827   -6.3277 O.3       1 <0>        -0.1710
     25 H2         -0.9600    1.8963    0.0259 H         1 <0>         0.1343
     26 H3          1.1511    3.1644    0.0028 H         1 <0>         0.1351
     27 H4          3.2982    1.9872   -0.0121 H         1 <0>         0.1364
     28 H5         -0.9284   -0.5523    0.0084 H         1 <0>         0.1343
     29 H6          1.8813   -3.8919   -0.7610 H         1 <0>         0.4205
     30 H7          5.8147   -1.5159    0.0213 H         1 <0>         0.4149
     31 H8          1.8238   -0.6166   -2.0556 H         1 <0>         0.1150
     32 H9          3.2235   -0.8383   -3.1325 H         1 <0>         0.1182
     33 H10         1.0038   -0.4846   -4.6194 H         1 <0>         0.4055
     34 H11         0.6745   -2.9162   -6.0176 H         1 <0>         0.1027
     35 H12        -0.7252   -2.6945   -4.9407 H         1 <0>         0.0876
     36 H13         0.9395   -1.1980   -8.0606 H         1 <0>         0.1517
     37 H14        -0.7775    0.5471   -9.2018 H         1 <0>         0.1523
     38 H15        -2.7954    0.8273   -7.5539 H         1 <0>         0.2066
@<TRIPOS>BOND
     1    1    6 ar
     2    1    2 ar
     3    1   25 1
     4    2    3 ar
     5    2   26 1
     6    3    4 ar
     7    3   27 1
     8    4   13 1
     9    4    5 ar
    10    5    6 ar
    11    5    7 1
    12    6   28 1
    13    7    8 2
    14    7    9 am
    15    9   10 1
    16    9   29 1
    17   10   11 1
    18   10   12 1
    19   10   15 1
    20   12   13 2
    21   12   14 1
    22   14   30 1
    23   15   16 1
    24   15   31 1
    25   15   32 1
    26   16   17 2
    27   16   18 am
    28   18   19 1
    29   18   33 1
    30   19   20 1
    31   19   34 1
    32   19   35 1
    33   20   24 1
    34   20   21 2
    35   21   22 1
    36   21   36 1
    37   22   23 2
    38   22   37 1
    39   23   24 1
    40   23   38 1
@<TRIPOS>MOLECULE
ZINC65310965
   37    38     0     0     0
SMALL
USER_CHARGES

@<TRIPOS>ATOM
      1 C1         -0.0155    1.4261    0.0039 C.3       1 <0>         0.0305
      2 O1          0.0051   -0.0028   -0.0012 O.3       1 <0>        -0.3777
      3 C2          0.6473   -0.5707   -1.1445 C.3       1 <0>         0.1114
      4 C3          0.6112   -2.0741   -1.0457 C.2       1 <0>         0.2298
      5 C4         -0.0948   -2.8001   -1.9604 C.2       1 <0>        -0.3254
      6 C5         -0.1131   -4.2016   -1.8477 C.2       1 <0>         0.5496
      7 O2         -0.7337   -4.8817   -2.6483 O.2       1 <0>        -0.5342
      8 N1          0.5697   -4.7803   -0.8368 N.am      1 <0>        -0.5281
      9 C6          1.2561   -4.0050    0.0456 C.2       1 <0>         0.6485
     10 N2          1.2726   -2.6920   -0.0697 N.2       1 <0>        -0.5754
     11 N3          1.9461   -4.5991    1.0679 N.pl3     1 <0>        -0.8175
     12 C7          0.5710   -6.2379   -0.6904 C.3       1 <0>         0.0678
     13 C8          1.7247   -6.8197   -1.4661 C.2       1 <0>         0.4991
     14 O3          2.4723   -6.0886   -2.0807 O.2       1 <0>        -0.4956
     15 N4          1.9258   -8.1523   -1.4768 N.am      1 <0>        -0.6671
     16 C9          2.9372   -8.7011   -2.2738 C.ar      1 <0>         0.1446
     17 C10         2.7500   -9.9347   -2.8834 C.ar      1 <0>        -0.1279
     18 C11         3.7495  -10.4740   -3.6693 C.ar      1 <0>        -0.0906
     19 C12         4.9367   -9.7861   -3.8495 C.ar      1 <0>        -0.0462
     20 C13         5.1257   -8.5567   -3.2431 C.ar      1 <0>        -0.0911
     21 C14         4.1272   -8.0103   -2.4609 C.ar      1 <0>        -0.1073
     22 Cl1         6.1912  -10.4671   -4.8375 Cl        1 <0>        -0.0657
     23 H1          1.0066    1.8043   -0.0119 H         1 <0>         0.0447
     24 H2         -0.5493    1.7848   -0.8762 H         1 <0>         0.0442
     25 H3         -0.5197    1.7790    0.9035 H         1 <0>         0.0895
     26 H4          0.1273   -0.2534   -2.0483 H         1 <0>         0.0750
     27 H5          1.6832   -0.2340   -1.1840 H         1 <0>         0.0747
     28 H6         -0.6310   -2.3064   -2.7574 H         1 <0>         0.1560
     29 H7          1.9427   -5.5649    1.1584 H         1 <0>         0.4094
     30 H8          2.4383   -4.0543    1.7018 H         1 <0>         0.4314
     31 H9          0.6741   -6.4972    0.3633 H         1 <0>         0.1219
     32 H10        -0.3655   -6.6425   -1.0741 H         1 <0>         0.1433
     33 H11         1.3697   -8.7311   -0.9322 H         1 <0>         0.4160
     34 H12         1.8238  -10.4720   -2.7428 H         1 <0>         0.1379
     35 H13         3.6045  -11.4335   -4.1433 H         1 <0>         0.1401
     36 H14         6.0533   -8.0220   -3.3850 H         1 <0>         0.1384
     37 H15         4.2735   -7.0487   -1.9915 H         1 <0>         0.1462
@<TRIPOS>BOND
     1    1    2 1
     2    1   23 1
     3    1   24 1
     4    1   25 1
     5    2    3 1
     6    3    4 1
     7    3   26 1
     8    3   27 1
     9    4   10 1
    10    4    5 2
    11    5    6 1
    12    5   28 1
    13    6    7 2
    14    6    8 am
    15    8    9 1
    16    8   12 1
    17    9   10 2
    18    9   11 1
    19   11   29 1
    20   11   30 1
    21   12   13 1
    22   12   31 1
    23   12   32 1
    24   13   14 2
    25   13   15 am
    26   15   16 1
    27   15   33 1
    28   16   21 ar
    29   16   17 ar
    30   17   18 ar
    31   17   34 1
    32   18   19 ar
    33   18   35 1
    34   19   20 ar
    35   19   22 1
    36   20   21 ar
    37   20   36 1
    38   21   37 1
@<TRIPOS>MOLECULE
ZINC06032820
   38    40     0     0     0
SMALL
USER_CHARGES
3-[3,4-dihydroxy-5-(hydroxymethyl)tetrahydrofuran-2-yl]-5-(p-tolyl)-1,3,4-oxadiazole-2-thione
@<TRIPOS>ATOM
      1 C1          9.3065    0.8697   -4.6678 C.3       1 <0>        -0.1237
      2 C2          8.2739    0.8821   -3.5702 C.ar      1 <0>        -0.0483
      3 C3          8.6749    0.8376   -2.2468 C.ar      1 <0>        -0.1228
      4 C4          7.7346    0.8486   -1.2373 C.ar      1 <0>        -0.0659
      5 C5          6.3766    0.9048   -1.5533 C.ar      1 <0>        -0.0510
      6 C6          5.9786    0.9437   -2.8902 C.ar      1 <0>        -0.0540
      7 C7          6.9291    0.9383   -3.8903 C.ar      1 <0>        -0.1237
      8 C8          5.3633    0.9170   -0.4762 C.2       1 <0>         0.2834
      9 N1          4.0746    0.9675   -0.6522 N.2       1 <0>        -0.2232
     10 N2          3.4691    0.9599    0.6130 N.pl3     1 <0>        -0.3634
     11 C9          4.4647    0.9083    1.5232 C.2       1 <0>         0.4246
     12 S1          4.2810    0.8843    3.2251 S.2       1 <0>        -0.4650
     13 O1          5.6268    0.8767    0.8482 O.3       1 <0>        -0.2056
     14 C10         2.0319    1.0056    0.8932 C.3       1 <0>         0.3363
     15 H1          1.8571    1.2915    1.9304 H         1 <0>         0.1511
     16 C11         1.3822   -0.3641    0.5960 C.3       1 <0>         0.0329
     17 H2          1.2645   -0.9383    1.5150 H         1 <0>         0.0994
     18 C12         0.0021   -0.0041    0.0020 C.3       1 <0>         0.0484
     19 H3         -0.7980   -0.4003    0.6273 H         1 <0>         0.0953
     20 C13        -0.0189    1.5406    0.0105 C.3       1 <0>         0.0878
     21 H4         -0.5082    1.9085    0.9124 H         1 <0>         0.1044
     22 O2          1.3722    1.9285   -0.0007 O.3       1 <0>        -0.3397
     23 C14        -0.7297    2.0705   -1.2364 C.3       1 <0>         0.0941
     24 O3         -0.8411    3.4927   -1.1530 O.3       1 <0>        -0.5712
     25 O4         -0.1127   -0.4990   -1.3336 O.3       1 <0>        -0.5342
     26 O5          2.1607   -1.0952   -0.3534 O.3       1 <0>        -0.5270
     27 H5          9.5183   -0.1600   -4.9557 H         1 <0>         0.0791
     28 H6          8.9265    1.4173   -5.5303 H         1 <0>         0.0729
     29 H7         10.2214    1.3429   -4.3113 H         1 <0>         0.0731
     30 H8          9.7263    0.7945   -2.0035 H         1 <0>         0.1371
     31 H9          8.0489    0.8135   -0.2046 H         1 <0>         0.1379
     32 H10         4.9290    0.9828   -3.1415 H         1 <0>         0.1399
     33 H11         6.6226    0.9733   -4.9253 H         1 <0>         0.1372
     34 H12        -0.1556    1.8024   -2.1234 H         1 <0>         0.0674
     35 H13        -1.7251    1.6312   -1.3015 H         1 <0>         0.0682
     36 H14        -1.2827    3.8978   -1.9119 H         1 <0>         0.3854
     37 H15        -0.1050   -1.4639   -1.3975 H         1 <0>         0.3814
     38 H16         1.7672   -1.9374   -0.6195 H         1 <0>         0.3815
@<TRIPOS>BOND
     1    1    2 1
     2    1   27 1
     3    1   28 1
     4    1   29 1
     5    2    7 ar
     6    2    3 ar
     7    3    4 ar
     8    3   30 1
     9    4    5 ar
    10    4   31 1
    11    5    6 ar
    12    5    8 1
    13    6    7 ar
    14    6   32 1
    15    7   33 1
    16    8   13 1
    17    8    9 2
    18    9   10 1
    19   10   11 1
    20   10   14 1
    21   11   12 2
    22   11   13 1
    23   14   15 1
    24   14   22 1
    25   14   16 1
    26   16   17 1
    27   16   18 1
    28   16   26 1
    29   18   19 1
    30   18   20 1
    31   18   25 1
    32   20   21 1
    33   20   22 1
    34   20   23 1
    35   23   24 1
    36   23   34 1
    37   23   35 1
    38   24   36 1
    39   25   37 1
    40   26   38 1
@<TRIPOS>MOLECULE
ZINC27489451
   34    34     0     0     0
SMALL
USER_CHARGES
3-[(4-bromo-1-methyl-pyrazole-3-carbonyl)amino]-1-butyl-urea
@<TRIPOS>ATOM
      1 C1          4.4824   -4.8006   -0.0665 C.3       1 <0>        -0.1544
      2 C2          4.7416   -3.2927   -0.0609 C.3       1 <0>        -0.1231
      3 C3          3.4064   -2.5458   -0.0441 C.3       1 <0>        -0.1320
      4 C4          3.6655   -1.0379   -0.0385 C.3       1 <0>         0.1368
      5 N1          2.3870   -0.3228   -0.0225 N.am      1 <0>        -0.7540
      6 C5          2.3687    1.0248   -0.0151 C.2       1 <0>         0.7158
      7 O1          3.4133    1.6471   -0.0217 O.2       1 <0>        -0.5755
      8 N2          1.1926    1.6828   -0.0003 N.am      1 <0>        -0.5408
      9 N3         -0.0111    0.9658    0.0074 N.am      1 <0>        -0.5251
     10 C6         -1.1873    1.6238    0.0165 C.2       1 <0>         0.6047
     11 O2         -1.2038    2.8394    0.0232 O.2       1 <0>        -0.5072
     12 C7         -2.4561    0.8681    0.0184 C.2       1 <0>         0.0166
     13 C8         -3.7612    1.4156    0.0276 C.2       1 <0>        -0.1552
     14 C9         -4.6004    0.3525    0.0250 C.2       1 <0>         0.0272
     15 N4         -3.8307   -0.7641    0.0148 N.pl3     1 <0>        -0.2740
     16 N5         -2.5867   -0.4435    0.0061 N.2       1 <0>        -0.2528
     17 C10        -4.3435   -2.1364    0.0093 C.3       1 <0>         0.0778
     18 Br1        -4.2339    3.2465    0.0407 Br        1 <0>         0.0206
     19 H1          5.4423   -5.3376   -0.0786 H         1 <0>         0.0572
     20 H2          3.9007   -5.0693   -0.9606 H         1 <0>         0.0548
     21 H3          3.9179   -5.0789    0.8356 H         1 <0>         0.0548
     22 H4          5.3233   -3.0240    0.8332 H         1 <0>         0.0665
     23 H5          5.3062   -3.0143   -0.9630 H         1 <0>         0.0665
     24 H6          2.8247   -2.8146   -0.9382 H         1 <0>         0.0698
     25 H7          2.8418   -2.8242    0.8580 H         1 <0>         0.0698
     26 H8          4.2472   -0.7691    0.8556 H         1 <0>         0.0683
     27 H9          4.2301   -0.7595   -0.9406 H         1 <0>         0.0683
     28 H10         1.4420   -0.8857   -0.0165 H         1 <0>         0.4041
     29 H11         1.1777    2.7827    0.0057 H         1 <0>         0.4719
     30 H12         0.0039   -0.1341    0.0060 H         1 <0>         0.4426
     31 H13        -5.6798    0.3874    0.0295 H         1 <0>         0.1964
     32 H14        -3.5004   -2.8428    0.0011 H         1 <0>         0.1078
     33 H15        -4.9619   -2.2931   -0.8868 H         1 <0>         0.0976
     34 H16        -4.9532   -2.3036    0.9094 H         1 <0>         0.0979
@<TRIPOS>BOND
     1    1    2 1
     2    1   19 1
     3    1   20 1
     4    1   21 1
     5    2    3 1
     6    2   22 1
     7    2   23 1
     8    3    4 1
     9    3   24 1
    10    3   25 1
    11    4    5 1
    12    4   26 1
    13    4   27 1
    14    5    6 am
    15    5   28 1
    16    6    7 2
    17    6    8 am
    18    8    9 1
    19    8   29 1
    20    9   10 am
    21    9   30 1
    22   10   11 2
    23   10   12 1
    24   12   16 2
    25   12   13 1
    26   13   14 2
    27   13   18 1
    28   14   15 1
    29   14   31 1
    30   15   16 1
    31   15   17 1
    32   17   32 1
    33   17   33 1
    34   17   34 1
@<TRIPOS>MOLECULE
ZINC40385412
   40    41     0     0     0
SMALL
USER_CHARGES

@<TRIPOS>ATOM
      1 C1          0.1537    1.6935    0.1452 C.3       1 <0>        -0.1149
      2 C2          0.2601    0.1953    0.0227 C.ar      1 <0>        -0.1260
      3 C3          0.4310   -0.3865   -1.2183 C.ar      1 <0>         0.0071
      4 C4          0.5283   -1.7611   -1.3317 C.ar      1 <0>        -0.6905
      5 C5          0.4553   -2.5580   -0.2036 C.ar      1 <0>         0.0104
      6 C6          0.2850   -1.9829    1.0401 C.ar      1 <0>        -0.1955
      7 C7          0.1922   -0.6017    1.1581 C.ar      1 <0>         0.2217
      8 N1          0.0251   -0.0163    2.4152 N.pl3     1 <0>        -1.0662
      9 S1          0.7638   -0.6778    3.7415 S.o2      1 <0>         2.7804
     10 O1          0.5188    0.2067    4.8263 O.2       1 <0>        -0.9601
     11 O2          0.3869   -2.0475    3.7753 O.2       1 <0>        -0.9605
     12 N2          2.3956   -0.6428    3.4614 N.pl3     1 <0>        -0.9968
     13 C8          3.0653   -1.7685    2.7959 C.3       1 <0>         0.1141
     14 C9          3.8544   -1.2337    1.5967 C.3       1 <0>        -0.1375
     15 C10         4.8019   -0.1277    2.0669 C.3       1 <0>        -0.1178
     16 C11         3.9888    1.0239    2.6625 C.3       1 <0>        -0.1358
     17 C12         3.2002    0.5173    3.8683 C.3       1 <0>         0.1189
     18 S2          0.7451   -2.4992   -2.9169 S.o2      1 <0>         2.7014
     19 O3          0.2613   -3.8314   -2.8141 O.2       1 <0>        -0.9607
     20 O4          0.2356   -1.5749   -3.8684 O.2       1 <0>        -0.9625
     21 N3          2.3752   -2.6072   -3.1878 N.pl3     1 <0>        -1.2498
     22 H1          1.1482    2.1186    0.2806 H         1 <0>         0.0773
     23 H2         -0.2955    2.1011   -0.7605 H         1 <0>         0.0777
     24 H3         -0.4688    1.9445    1.0041 H         1 <0>         0.0659
     25 H4          0.4884    0.2329   -2.1012 H         1 <0>         0.1486
     26 H5          0.5313   -3.6314   -0.2957 H         1 <0>         0.1515
     27 H6          0.2277   -2.6058    1.9205 H         1 <0>         0.1705
     28 H7         -0.5236    0.7778    2.5114 H         1 <0>         0.4286
     29 H8          3.7468   -2.2533    3.4950 H         1 <0>         0.0794
     30 H9          2.3199   -2.4857    2.4523 H         1 <0>         0.0909
     31 H10         4.4328   -2.0433    1.1515 H         1 <0>         0.0788
     32 H11         3.1630   -0.8303    0.8569 H         1 <0>         0.0670
     33 H12         5.4769   -0.5256    2.8247 H         1 <0>         0.0667
     34 H13         5.3824    0.2377    1.2198 H         1 <0>         0.0669
     35 H14         4.6628    1.8212    2.9758 H         1 <0>         0.0784
     36 H15         3.2961    1.4061    1.9127 H         1 <0>         0.0659
     37 H16         2.5438    1.3078    4.2320 H         1 <0>         0.0896
     38 H17         3.8929    0.2231    4.6567 H         1 <0>         0.0787
     39 H18         3.0003   -2.2874   -2.5186 H         1 <0>         0.4163
     40 H19         2.7049   -2.9903   -4.0158 H         1 <0>         0.4219
@<TRIPOS>BOND
     1    1    2 1
     2    1   22 1
     3    1   23 1
     4    1   24 1
     5    2    7 ar
     6    2    3 ar
     7    3    4 ar
     8    3   25 1
     9    4    5 ar
    10    4   18 1
    11    5    6 ar
    12    5   26 1
    13    6    7 ar
    14    6   27 1
    15    7    8 1
    16    8    9 1
    17    8   28 1
    18    9   10 2
    19    9   11 2
    20    9   12 1
    21   12   17 1
    22   12   13 1
    23   13   14 1
    24   13   29 1
    25   13   30 1
    26   14   15 1
    27   14   31 1
    28   14   32 1
    29   15   16 1
    30   15   33 1
    31   15   34 1
    32   16   17 1
    33   16   35 1
    34   16   36 1
    35   17   37 1
    36   17   38 1
    37   18   19 2
    38   18   20 2
    39   18   21 1
    40   21   39 1
    41   21   40 1
@<TRIPOS>MOLECULE
ZINC58950520
   44    46     0     0     0
SMALL
USER_CHARGES

@<TRIPOS>ATOM
      1 C1          0.9209    1.1496    0.3451 C.3       1 <0>        -0.0776
      2 C2          0.6643   -0.3234    0.1565 C.2       1 <0>         0.1218
      3 C3          0.4737   -0.9687   -1.0580 C.2       1 <0>        -0.2576
      4 C4          0.2709   -2.2966   -0.8048 C.2       1 <0>         0.2727
      5 N1          0.3348   -2.4706    0.5250 N.pl3     1 <0>        -0.4491
      6 H1          0.2289   -3.3115    0.9968 H         1 <0>         0.4451
      7 N2          0.5877   -1.2204    1.1108 N.2       1 <0>        -0.2671
      8 O1          0.0496   -3.2047   -1.7877 O.3       1 <0>        -0.2353
      9 C5         -0.2413   -2.7359   -3.0168 C.2       1 <0>         0.4259
     10 C6         -0.0705   -1.4450   -3.3908 C.2       1 <0>        -0.3478
     11 C7          0.4734   -0.3969   -2.4522 C.3       1 <0>         0.1314
     12 H2         -0.1588    0.4904   -2.4857 H         1 <0>         0.0916
     13 C8          1.8801   -0.0354   -2.8539 C.ar      1 <0>        -0.1305
     14 C9          2.8567   -1.0133   -2.9021 C.ar      1 <0>        -0.0426
     15 C10         4.1469   -0.6855   -3.2698 C.ar      1 <0>        -0.1983
     16 C11         4.4631    0.6284   -3.5914 C.ar      1 <0>         0.2151
     17 C12         3.4797    1.6082   -3.5420 C.ar      1 <0>        -0.1967
     18 C13         2.1903    1.2725   -3.1789 C.ar      1 <0>        -0.0623
     19 N3          5.7671    0.9635   -3.9633 N.pl3     1 <0>        -0.6403
     20 C14         6.7750   -0.0870   -4.1268 C.3       1 <0>         0.0894
     21 C15         6.1268    2.3655   -4.1897 C.3       1 <0>         0.0935
     22 C16        -0.4120   -1.0695   -4.6981 C.2       1 <0>         0.5410
     23 O2         -1.4612   -0.4880   -4.9104 O.2       1 <0>        -0.5010
     24 O3          0.4223   -1.3527   -5.7218 O.3       1 <0>        -0.3477
     25 C17         0.0110   -0.9410   -7.0269 C.3       1 <0>         0.0288
     26 N4         -0.7380   -3.6151   -3.9416 N.pl3     1 <0>        -0.8349
     27 H3          1.9941    1.3381    0.3157 H         1 <0>         0.0844
     28 H4          0.4318    1.7087   -0.4525 H         1 <0>         0.0825
     29 H5          0.5225    1.4673    1.3087 H         1 <0>         0.0776
     30 H6          2.6102   -2.0345   -2.6516 H         1 <0>         0.1086
     31 H7          4.9091   -1.4496   -3.3069 H         1 <0>         0.1200
     32 H8          3.7224    2.6307   -3.7910 H         1 <0>         0.1214
     33 H9          1.4242    2.0330   -3.1445 H         1 <0>         0.1199
     34 H10         6.3496   -1.0473   -3.8353 H         1 <0>         0.0774
     35 H11         7.0888   -0.1302   -5.1698 H         1 <0>         0.0514
     36 H12         7.6366    0.1349   -3.4971 H         1 <0>         0.0544
     37 H13         6.4743    2.8068   -3.2557 H         1 <0>         0.0477
     38 H14         6.9201    2.4212   -4.9352 H         1 <0>         0.0648
     39 H15         5.2536    2.9115   -4.5469 H         1 <0>         0.0691
     40 H16         0.7696   -1.2290   -7.7547 H         1 <0>         0.0998
     41 H17        -0.9346   -1.4214   -7.2783 H         1 <0>         0.0579
     42 H18        -0.1158    0.1415   -7.0433 H         1 <0>         0.0610
     43 H19        -0.7934   -4.5604   -3.7312 H         1 <0>         0.4103
     44 H20        -1.0345   -3.2927   -4.8070 H         1 <0>         0.4240
@<TRIPOS>BOND
     1    1    2 1
     2    1   27 1
     3    1   28 1
     4    1   29 1
     5    2    7 2
     6    2    3 1
     7    3   11 1
     8    3    4 2
     9    4    5 1
    10    4    8 1
    11    5    6 1
    12    5    7 1
    13    8    9 1
    14    9   10 2
    15    9   26 1
    16   10   11 1
    17   10   22 1
    18   11   12 1
    19   11   13 1
    20   13   18 ar
    21   13   14 ar
    22   14   15 ar
    23   14   30 1
    24   15   16 ar
    25   15   31 1
    26   16   17 ar
    27   16   19 1
    28   17   18 ar
    29   17   32 1
    30   18   33 1
    31   19   20 1
    32   19   21 1
    33   20   34 1
    34   20   35 1
    35   20   36 1
    36   21   37 1
    37   21   38 1
    38   21   39 1
    39   22   23 2
    40   22   24 1
    41   24   25 1
    42   25   40 1
    43   25   41 1
    44   25   42 1
    45   26   43 1
    46   26   44 1
@<TRIPOS>MOLECULE
ZINC64481606
   38    40     0     0     0
SMALL
USER_CHARGES

@<TRIPOS>ATOM
      1 C1         -0.0187    1.5258    0.0104 C.3       1 <0>        -0.1414
      2 C2          0.0021   -0.0041    0.0020 C.3       1 <0>        -0.1166
      3 S1          0.8511   -0.5891   -1.4904 S.3       1 <0>         0.0484
      4 C3          0.7923   -2.3448   -1.3538 C.2       1 <0>         0.4231
      5 N1          0.1916   -2.8530   -0.2916 N.2       1 <0>        -0.6336
      6 C4          0.0353   -4.1682   -0.1259 C.2       1 <0>         0.5264
      7 O1         -0.4952   -4.6275    0.8669 O.2       1 <0>        -0.4223
      8 C5          0.5511   -5.0599   -1.2363 C.3       1 <0>        -0.1998
      9 H1         -0.2892   -5.6008   -1.6715 H         1 <0>         0.1483
     10 C6          1.5219   -6.0726   -0.6259 C.3       1 <0>        -0.0279
     11 H2          2.4119   -5.5558   -0.2670 H         1 <0>         0.0984
     12 C7          1.9154   -7.0846   -1.7049 C.3       1 <0>        -0.1354
     13 C8          2.3327   -6.3893   -2.9683 C.2       1 <0>         0.5312
     14 O2          2.9907   -7.0060   -3.7785 O.2       1 <0>        -0.4827
     15 N2          2.0091   -5.1144   -3.2414 N.am      1 <0>        -0.6266
     16 C9          1.3122   -4.3605   -2.3473 C.2       1 <0>         0.4984
     17 N3          1.3547   -3.0587   -2.3363 N.2       1 <0>        -0.5722
     18 C10         0.8538   -6.7855    0.5215 C.ar      1 <0>        -0.0657
     19 C11        -0.2942   -7.5235    0.3004 C.ar      1 <0>        -0.0953
     20 C12        -0.9108   -8.1793    1.3496 C.ar      1 <0>        -0.1217
     21 C13        -0.3781   -8.0982    2.6262 C.ar      1 <0>         0.0884
     22 C14         0.7776   -7.3558    2.8486 C.ar      1 <0>         0.0896
     23 C15         1.3934   -6.7048    1.7917 C.ar      1 <0>        -0.1085
     24 O3          1.3043   -7.2731    4.0998 O.3       1 <0>        -0.4860
     25 O4         -0.9837   -8.7423    3.6595 O.3       1 <0>        -0.4872
     26 H3          1.0039    1.9031    0.0027 H         1 <0>         0.0680
     27 H4         -0.5459    1.8868   -0.8726 H         1 <0>         0.0676
     28 H5         -0.5289    1.8773    0.9072 H         1 <0>         0.0834
     29 H6          0.5293   -0.3651    0.8851 H         1 <0>         0.1017
     30 H7         -1.0205   -0.3814    0.0098 H         1 <0>         0.1008
     31 H8          2.7436   -7.6924   -1.3406 H         1 <0>         0.1297
     32 H9          1.0640   -7.7313   -1.9167 H         1 <0>         0.1253
     33 H10         2.2633   -4.7265   -4.0933 H         1 <0>         0.4292
     34 H11        -0.7104   -7.5875   -0.6941 H         1 <0>         0.1256
     35 H12        -1.8079   -8.7545    1.1744 H         1 <0>         0.1351
     36 H13         2.2926   -6.1310    1.9609 H         1 <0>         0.1293
     37 H14         1.9477   -7.9660    4.3022 H         1 <0>         0.3870
     38 H15        -0.6680   -9.6456    3.7991 H         1 <0>         0.3877
@<TRIPOS>BOND
     1    1    2 1
     2    1   26 1
     3    1   27 1
     4    1   28 1
     5    2    3 1
     6    2   29 1
     7    2   30 1
     8    3    4 1
     9    4   17 1
    10    4    5 2
    11    5    6 1
    12    6    7 2
    13    6    8 1
    14    8    9 1
    15    8   16 1
    16    8   10 1
    17   10   11 1
    18   10   12 1
    19   10   18 1
    20   12   13 1
    21   12   31 1
    22   12   32 1
    23   13   14 2
    24   13   15 am
    25   15   16 1
    26   15   33 1
    27   16   17 2
    28   18   23 ar
    29   18   19 ar
    30   19   20 ar
    31   19   34 1
    32   20   21 ar
    33   20   35 1
    34   21   22 ar
    35   21   25 1
    36   22   23 ar
    37   22   24 1
    38   23   36 1
    39   24   37 1
    40   25   38 1
@<TRIPOS>MOLECULE
ZINC03309014
   42    43     0     0     0
SMALL
USER_CHARGES

@<TRIPOS>ATOM
      1 C1          2.3681    4.0988    1.0266 C.3       1 <0>        -0.1449
      2 C2          1.1698    3.1531    1.1306 C.3       1 <0>         0.0696
      3 H1          1.1901    2.6431    2.0937 H         1 <0>         0.0694
      4 C3          1.2349    2.1181    0.0016 C.3       1 <0>         0.0848
      5 N1         -0.0162    1.3436    0.0094 N.am      1 <0>        -0.6114
      6 C4         -1.2879    2.0838    0.0193 C.3       1 <0>         0.0715
      7 C5         -1.2301    3.1205    1.1528 C.3       1 <0>         0.0747
      8 H2         -2.1030    3.7707    1.0948 H         1 <0>         0.1193
      9 O1         -0.0417    3.9028    1.0126 O.3       1 <0>        -0.3678
     10 C6         -1.2145    2.4054    2.5054 C.3       1 <0>        -0.1886
     11 C7          0.0021   -0.0041    0.0020 C.2       1 <0>         0.5205
     12 O2          1.0605   -0.5961   -0.0113 O.2       1 <0>        -0.5111
     13 C8         -1.2926   -0.7753    0.0102 C.3       1 <0>         0.0507
     14 O3         -1.0080   -2.1990   -0.0001 O.3       1 <0>        -0.3262
     15 C9         -2.0653   -3.0343    0.0055 C.2       1 <0>         0.5166
     16 O4         -3.1943   -2.5853    0.0187 O.2       1 <0>        -0.4968
     17 C10        -1.8523   -4.4936   -0.0044 C.ar      1 <0>        -0.1046
     18 C11        -0.5544   -5.0115   -0.0253 C.ar      1 <0>        -0.0775
     19 C12        -0.3576   -6.3795   -0.0278 C.ar      1 <0>         0.0861
     20 C13        -1.4511   -7.2416   -0.0224 C.ar      1 <0>         0.0965
     21 C14        -2.7455   -6.7283   -0.0078 C.ar      1 <0>         0.0863
     22 C15        -2.9481   -5.3612    0.0014 C.ar      1 <0>        -0.0718
     23 O5         -3.8113   -7.5731   -0.0022 O.3       1 <0>        -0.4778
     24 O6         -1.2549   -8.5861   -0.0310 O.3       1 <0>        -0.4725
     25 O7          0.9053   -6.8843   -0.0416 O.3       1 <0>        -0.4782
     26 H3          2.3453    4.6097    0.0641 H         1 <0>         0.0674
     27 H4          2.3211    4.8344    1.8296 H         1 <0>         0.0699
     28 H5          3.2915    3.5260    1.1122 H         1 <0>         0.0759
     29 H6          2.0811    1.4505    0.1640 H         1 <0>         0.1042
     30 H7          1.3465    2.6257   -0.9565 H         1 <0>         0.0808
     31 H8         -1.4264    2.5885   -0.9368 H         1 <0>         0.0873
     32 H9         -2.1132    1.3934    0.1935 H         1 <0>         0.0949
     33 H10        -1.1693    3.1436    3.3061 H         1 <0>         0.0711
     34 H11        -2.1208    1.8092    2.6116 H         1 <0>         0.0700
     35 H12        -0.3423    1.7541    2.5620 H         1 <0>         0.0612
     36 H13        -1.8592   -0.5245    0.9070 H         1 <0>         0.1052
     37 H14        -1.8762   -0.5150   -0.8728 H         1 <0>         0.1061
     38 H15         0.2941   -4.3434   -0.0344 H         1 <0>         0.1569
     39 H16        -3.9522   -4.9636    0.0127 H         1 <0>         0.1542
     40 H17        -4.1280   -7.8127   -0.8839 H         1 <0>         0.3931
     41 H18        -1.2062   -8.9708   -0.9169 H         1 <0>         0.3922
     42 H19         1.2626   -7.0257   -0.9289 H         1 <0>         0.3932
@<TRIPOS>BOND
     1    1    2 1
     2    1   26 1
     3    1   27 1
     4    1   28 1
     5    2    3 1
     6    2    9 1
     7    2    4 1
     8    4    5 1
     9    4   29 1
    10    4   30 1
    11    5    6 1
    12    5   11 am
    13    6    7 1
    14    6   31 1
    15    6   32 1
    16    7    8 1
    17    7    9 1
    18    7   10 1
    19   10   33 1
    20   10   34 1
    21   10   35 1
    22   11   12 2
    23   11   13 1
    24   13   14 1
    25   13   36 1
    26   13   37 1
    27   14   15 1
    28   15   16 2
    29   15   17 1
    30   17   22 ar
    31   17   18 ar
    32   18   19 ar
    33   18   38 1
    34   19   20 ar
    35   19   25 1
    36   20   21 ar
    37   20   24 1
    38   21   22 ar
    39   21   23 1
    40   22   39 1
    41   23   40 1
    42   24   41 1
    43   25   42 1
@<TRIPOS>MOLECULE
ZINC11423402
   45    47     0     0     0
SMALL
USER_CHARGES
N-carbamoyl-2-[[4-cyclopropyl-5-(4-methyl-1-piperidyl)-1,2,4-triazol-3-yl]sulfanyl]acetamide
@<TRIPOS>ATOM
      1 C1         -7.4126   -5.6877    0.8114 C.3       1 <0>        -0.1468
      2 C2         -6.6017   -4.4963    0.2978 C.3       1 <0>        -0.0979
      3 C3         -6.6023   -3.3848    1.3509 C.3       1 <0>        -0.1138
      4 C4         -5.7399   -2.2208    0.8575 C.3       1 <0>         0.0698
      5 N1         -4.3699   -2.6922    0.6180 N.pl3     1 <0>        -0.4507
      6 C5         -4.3387   -3.7267   -0.4236 C.3       1 <0>         0.0475
      7 C6         -5.1593   -4.9357    0.0315 C.3       1 <0>        -0.1110
      8 C7         -3.5291   -1.6349    0.2948 C.2       1 <0>         0.4179
      9 N2         -3.8759   -0.3745    0.2066 N.2       1 <0>        -0.3408
     10 N3         -2.7376    0.3648   -0.1406 N.2       1 <0>        -0.3093
     11 C8         -1.7323   -0.4689   -0.2531 C.2       1 <0>         0.1857
     12 N4         -2.1966   -1.7275    0.0082 N.pl3     1 <0>        -0.4554
     13 C9         -1.4037   -2.9593   -0.0121 C.3       1 <0>         0.0432
     14 C10         0.1183   -2.8210    0.0604 C.3       1 <0>        -0.1714
     15 C11        -0.5517   -3.2306   -1.2536 C.3       1 <0>        -0.1751
     16 S1         -0.0753   -0.0427   -0.6744 S.3       1 <0>         0.0992
     17 C12        -0.1283    1.7567   -0.8979 C.3       1 <0>        -0.1731
     18 C13         1.2444    2.2577   -1.2664 C.2       1 <0>         0.5426
     19 O1          2.1672    1.4781   -1.3681 O.2       1 <0>        -0.4492
     20 N5          1.4462    3.5726   -1.4828 N.am      1 <0>        -0.6855
     21 C14         2.6738    4.0207   -1.8123 C.2       1 <0>         0.6979
     22 O2          3.5989    3.2391   -1.9143 O.2       1 <0>        -0.5294
     23 N6          2.8756    5.3356   -2.0287 N.am      1 <0>        -0.8547
     24 H1         -8.4378   -5.3727    1.0060 H         1 <0>         0.0571
     25 H2         -7.4117   -6.4784    0.0611 H         1 <0>         0.0561
     26 H3         -6.9661   -6.0609    1.7331 H         1 <0>         0.0570
     27 H4         -7.0463   -4.1238   -0.6251 H         1 <0>         0.0709
     28 H5         -6.1945   -3.7691    2.2858 H         1 <0>         0.0756
     29 H6         -7.6228   -3.0381    1.5136 H         1 <0>         0.0790
     30 H7         -5.7265   -1.4336    1.6113 H         1 <0>         0.0922
     31 H8         -6.1562   -1.8283   -0.0702 H         1 <0>         0.0551
     32 H9         -4.7616   -3.3270   -1.3453 H         1 <0>         0.0509
     33 H10        -3.3078   -4.0333   -0.6003 H         1 <0>         0.0863
     34 H11        -4.7288   -5.3444    0.9457 H         1 <0>         0.0768
     35 H12        -5.1489   -5.6970   -0.7484 H         1 <0>         0.0777
     36 H13        -1.8554   -3.8174    0.4857 H         1 <0>         0.1552
     37 H14         0.5297   -1.8136    0.1232 H         1 <0>         0.1173
     38 H15         0.6679   -3.5884    0.6055 H         1 <0>         0.1234
     39 H16        -0.4425   -4.2672   -1.5724 H         1 <0>         0.1177
     40 H17        -0.5813   -2.4928   -2.0554 H         1 <0>         0.1092
     41 H18        -0.8309    2.0034   -1.6939 H         1 <0>         0.1317
     42 H19        -0.4504    2.2288    0.0302 H         1 <0>         0.1327
     43 H20         0.7079    4.1965   -1.4014 H         1 <0>         0.4145
     44 H21         2.1373    5.9595   -1.9473 H         1 <0>         0.4013
     45 H22         3.7591    5.6581   -2.2658 H         1 <0>         0.4226
@<TRIPOS>BOND
     1    1    2 1
     2    1   24 1
     3    1   25 1
     4    1   26 1
     5    2    7 1
     6    2    3 1
     7    2   27 1
     8    3    4 1
     9    3   28 1
    10    3   29 1
    11    4    5 1
    12    4   30 1
    13    4   31 1
    14    5    6 1
    15    5    8 1
    16    6    7 1
    17    6   32 1
    18    6   33 1
    19    7   34 1
    20    7   35 1
    21    8   12 1
    22    8    9 2
    23    9   10 1
    24   10   11 2
    25   11   12 1
    26   11   16 1
    27   12   13 1
    28   13   15 1
    29   13   14 1
    30   13   36 1
    31   14   15 1
    32   14   37 1
    33   14   38 1
    34   15   39 1
    35   15   40 1
    36   16   17 1
    37   17   18 1
    38   17   41 1
    39   17   42 1
    40   18   19 2
    41   18   20 am
    42   20   21 am
    43   20   43 1
    44   21   22 2
    45   21   23 am
    46   23   44 1
    47   23   45 1
@<TRIPOS>MOLECULE
ZINC41214248
   30    31     0     0     0
SMALL
USER_CHARGES

@<TRIPOS>ATOM
      1 C1         -0.0173    1.4248    0.0099 C.3       1 <0>         0.0210
      2 O1          0.0021   -0.0041    0.0020 O.3       1 <0>        -0.2980
      3 C2          0.6263   -0.6188    1.0423 C.ar      1 <0>         0.1051
      4 C3          1.2019    0.1387    2.0506 C.ar      1 <0>        -0.1539
      5 C4          1.8395   -0.4802    3.1126 C.ar      1 <0>        -0.0677
      6 C5          1.9078   -1.8569    3.1770 C.ar      1 <0>        -0.0819
      7 C6          1.3314   -2.6325    2.1677 C.ar      1 <0>        -0.0453
      8 C7          0.6819   -2.0060    1.0971 C.ar      1 <0>         0.1372
      9 O2          0.1136   -2.7514    0.1128 O.3       1 <0>        -0.4527
     10 C8          1.4020   -4.1032    2.2325 C.2       1 <0>         0.1106
     11 N1          0.8654   -4.8209    1.2930 N.2       1 <0>        -0.1888
     12 N2          0.9325   -6.2189    1.3547 N.pl3     1 <0>        -0.5348
     13 C9          0.3642   -6.9790    0.3597 C.2       1 <0>         0.4786
     14 C10         0.4185   -8.3925    0.4106 C.2       1 <0>        -0.0264
     15 N3         -0.1287   -9.0903   -0.5466 N.2       1 <0>        -0.1459
     16 N4         -0.7157   -8.5106   -1.5338 N.am      1 <0>        -0.4839
     17 H1         -1.1150   -9.0521   -2.2325 H         1 <0>         0.4450
     18 C11        -0.7882   -7.1702   -1.6180 C.2       1 <0>         0.6167
     19 O3         -1.3523   -6.6529   -2.5680 O.2       1 <0>        -0.5149
     20 N5         -0.2520   -6.4014   -0.6666 N.2       1 <0>        -0.5333
     21 Br1         2.6208    0.5660    4.4805 Br        1 <0>        -0.0345
     22 H2          1.0053    1.8021    0.0021 H         1 <0>         0.0587
     23 H3         -0.5445    1.7859   -0.8732 H         1 <0>         0.1066
     24 H4         -0.5275    1.7763    0.9067 H         1 <0>         0.0591
     25 H5          1.1531    1.2168    2.0074 H         1 <0>         0.1454
     26 H6          2.4069   -2.3347    4.0071 H         1 <0>         0.1458
     27 H7          0.7098   -2.9543   -0.6210 H         1 <0>         0.3949
     28 H8          1.9000   -4.5839    3.0615 H         1 <0>         0.1315
     29 H9          1.3798   -6.6507    2.0992 H         1 <0>         0.4049
     30 H10         0.9091   -8.8893    1.2346 H         1 <0>         0.2011
@<TRIPOS>BOND
     1    1    2 1
     2    1   22 1
     3    1   23 1
     4    1   24 1
     5    2    3 1
     6    3    8 ar
     7    3    4 ar
     8    4    5 ar
     9    4   25 1
    10    5    6 ar
    11    5   21 1
    12    6    7 ar
    13    6   26 1
    14    7    8 ar
    15    7   10 1
    16    8    9 1
    17    9   27 1
    18   10   11 2
    19   10   28 1
    20   11   12 1
    21   12   13 1
    22   12   29 1
    23   13   20 2
    24   13   14 1
    25   14   15 2
    26   14   30 1
    27   15   16 1
    28   16   17 1
    29   16   18 am
    30   18   19 2
    31   18   20 1
@<TRIPOS>MOLECULE
ZINC55895835
   49    50     0     0     0
SMALL
USER_CHARGES

@<TRIPOS>ATOM
      1 C1          0.1184    1.3368   -1.8230 C.3       1 <0>        -0.1446
      2 C2          0.0307   -0.1894   -1.7601 C.3       1 <0>         0.0705
      3 H1         -0.2478   -0.5788   -2.7393 H         1 <0>         0.0675
      4 C3         -1.0250   -0.5995   -0.7269 C.3       1 <0>         0.0832
      5 N1         -0.9585   -2.0587   -0.5495 N.am      1 <0>        -0.6102
      6 C4          0.3564   -2.6642   -0.2851 C.3       1 <0>         0.0685
      7 C5          1.3447   -2.1535   -1.3398 C.3       1 <0>         0.0740
      8 H2          2.3525   -2.4793   -1.0823 H         1 <0>         0.1153
      9 O1          1.2993   -0.7252   -1.3763 O.3       1 <0>        -0.3703
     10 C6          0.9619   -2.7122   -2.7117 C.3       1 <0>        -0.1835
     11 C7         -2.0692   -2.8183   -0.6266 C.2       1 <0>         0.5698
     12 O2         -3.1557   -2.2932   -0.7763 O.2       1 <0>        -0.5363
     13 C8         -1.9668   -4.2867   -0.5293 C.ar      1 <0>        -0.1899
     14 C9         -1.2283   -4.8704    0.5042 C.ar      1 <0>        -0.0401
     15 C10        -1.1351   -6.2405    0.5926 C.ar      1 <0>        -0.1946
     16 C11        -1.7749   -7.0452   -0.3463 C.ar      1 <0>         0.2415
     17 C12        -2.5107   -6.4669   -1.3770 C.ar      1 <0>        -0.2052
     18 C13        -2.6128   -5.0976   -1.4671 C.ar      1 <0>        -0.0157
     19 N2         -1.6784   -8.4292   -0.2546 N.pl3     1 <0>        -0.7305
     20 C14        -2.3510   -9.2774   -1.2417 C.3       1 <0>         0.1061
     21 C15        -2.0912  -10.7264   -0.9192 C.2       1 <0>         0.5147
     22 O3         -1.4114  -11.0214    0.0403 O.2       1 <0>        -0.4590
     23 N3         -2.6145  -11.6943   -1.6975 N.am      1 <0>        -0.6886
     24 C16        -2.3821  -12.9902   -1.4091 C.2       1 <0>         0.6914
     25 O4         -1.7006  -13.2859   -0.4472 O.2       1 <0>        -0.5257
     26 N4         -2.9055  -13.9581   -2.1874 N.am      1 <0>        -0.7397
     27 C17        -2.6529  -15.3667   -1.8739 C.3       1 <0>         0.1013
     28 H3          0.8704    1.6276   -2.5565 H         1 <0>         0.0685
     29 H4         -0.8497    1.7446   -2.1139 H         1 <0>         0.0748
     30 H5          0.3968    1.7254   -0.8435 H         1 <0>         0.0666
     31 H6         -0.8210   -0.1046    0.2226 H         1 <0>         0.0767
     32 H7         -2.0159   -0.3177   -1.0828 H         1 <0>         0.1014
     33 H8          0.6994   -2.3772    0.7089 H         1 <0>         0.0792
     34 H9          0.2801   -3.7497   -0.3485 H         1 <0>         0.1064
     35 H10        -0.0452   -2.3846   -2.9694 H         1 <0>         0.0607
     36 H11         1.6651   -2.3487   -3.4611 H         1 <0>         0.0664
     37 H12         0.9932   -3.8014   -2.6822 H         1 <0>         0.0691
     38 H13        -0.7312   -4.2467    1.2324 H         1 <0>         0.1294
     39 H14        -0.5647   -6.6920    1.3908 H         1 <0>         0.1302
     40 H15        -3.0056   -7.0938   -2.1040 H         1 <0>         0.1282
     41 H16        -3.1877   -4.6496   -2.2642 H         1 <0>         0.1291
     42 H17        -1.1657   -8.8332    0.4630 H         1 <0>         0.4151
     43 H18        -3.4237   -9.0858   -1.2146 H         1 <0>         0.1023
     44 H19        -1.9667   -9.0520   -2.2365 H         1 <0>         0.1021
     45 H20        -3.1584  -11.4583   -2.4652 H         1 <0>         0.4131
     46 H21        -3.4494  -13.7220   -2.9550 H         1 <0>         0.4016
     47 H22        -1.5802  -15.5582   -1.9010 H         1 <0>         0.0634
     48 H23        -3.0372  -15.5921   -0.8791 H         1 <0>         0.0634
     49 H24        -3.1534  -15.9978   -2.6083 H         1 <0>         0.0825
@<TRIPOS>BOND
     1    1    2 1
     2    1   28 1
     3    1   29 1
     4    1   30 1
     5    2    3 1
     6    2    9 1
     7    2    4 1
     8    4    5 1
     9    4   31 1
    10    4   32 1
    11    5    6 1
    12    5   11 am
    13    6    7 1
    14    6   33 1
    15    6   34 1
    16    7    8 1
    17    7    9 1
    18    7   10 1
    19   10   35 1
    20   10   36 1
    21   10   37 1
    22   11   12 2
    23   11   13 1
    24   13   18 ar
    25   13   14 ar
    26   14   15 ar
    27   14   38 1
    28   15   16 ar
    29   15   39 1
    30   16   17 ar
    31   16   19 1
    32   17   18 ar
    33   17   40 1
    34   18   41 1
    35   19   20 1
    36   19   42 1
    37   20   21 1
    38   20   43 1
    39   20   44 1
    40   21   22 2
    41   21   23 am
    42   23   24 am
    43   23   45 1
    44   24   25 2
    45   24   26 am
    46   26   27 1
    47   26   46 1
    48   27   47 1
    49   27   48 1
    50   27   49 1
@<TRIPOS>MOLECULE
ZINC63270696
   41    42     0     0     0
SMALL
USER_CHARGES

@<TRIPOS>ATOM
      1 C1         -0.0187    1.5258    0.0104 C.3       1 <0>        -0.1626
      2 C2          0.0021   -0.0041    0.0020 C.3       1 <0>         0.1519
      3 C3          0.7421   -0.5109    1.2415 C.3       1 <0>        -0.1668
      4 N1         -1.3723   -0.5112    0.0124 N.am      1 <0>        -0.7396
      5 C4         -1.6432   -1.7342   -0.4849 C.2       1 <0>         0.7136
      6 O1         -0.7468   -2.4167   -0.9421 O.2       1 <0>        -0.5663
      7 N2         -2.9076   -2.2007   -0.4753 N.am      1 <0>        -0.5323
      8 N3         -3.9404   -1.4143    0.0516 N.am      1 <0>        -0.5290
      9 C5         -5.2048   -1.8808    0.0611 C.2       1 <0>         0.5253
     10 O2         -5.4485   -2.9814   -0.3864 O.2       1 <0>        -0.5244
     11 C6         -6.3158   -1.0349    0.6279 C.3       1 <0>        -0.1510
     12 C7         -7.6405   -1.7926    0.5183 C.3       1 <0>         0.1273
     13 N4         -8.7205   -0.9703    1.0692 N.am      1 <0>        -0.5779
     14 C8         -9.1060   -0.9839    2.3580 C.2       1 <0>         0.5744
     15 O3         -8.6217   -1.6698    3.2355 O.2       1 <0>        -0.4563
     16 C9        -10.2176   -0.0244    2.5273 C.ar      1 <0>        -0.1418
     17 C10       -10.9944    0.3767    3.6023 C.ar      1 <0>        -0.0431
     18 C11       -11.9859    1.3273    3.4168 C.ar      1 <0>        -0.0937
     19 C12       -12.2045    1.8772    2.1676 C.ar      1 <0>        -0.0938
     20 C13       -11.4353    1.4857    1.0831 C.ar      1 <0>        -0.0430
     21 C14       -10.4404    0.5363    1.2535 C.ar      1 <0>        -0.1419
     22 C15        -9.4535   -0.0978    0.3542 C.2       1 <0>         0.5745
     23 O4         -9.3268    0.1294   -0.8321 O.2       1 <0>        -0.4563
     24 H1          1.0039    1.9031    0.0027 H         1 <0>         0.0778
     25 H2         -0.5459    1.8868   -0.8726 H         1 <0>         0.0629
     26 H3         -0.5289    1.8773    0.9072 H         1 <0>         0.0613
     27 H4          0.5123   -0.3556   -0.8948 H         1 <0>         0.0927
     28 H5          0.2319   -0.1594    2.1383 H         1 <0>         0.0565
     29 H6          0.7568   -1.6008    1.2356 H         1 <0>         0.0624
     30 H7          1.7647   -0.1336    1.2338 H         1 <0>         0.0692
     31 H8         -2.0874    0.0333    0.3772 H         1 <0>         0.3897
     32 H9         -3.1025   -3.0809   -0.8332 H         1 <0>         0.4444
     33 H10        -3.7455   -0.5340    0.4095 H         1 <0>         0.4202
     34 H11        -6.1079   -0.8162    1.6753 H         1 <0>         0.1094
     35 H12        -6.3836   -0.1018    0.0685 H         1 <0>         0.1094
     36 H13        -7.8484   -2.0112   -0.5291 H         1 <0>         0.1104
     37 H14        -7.5727   -2.7256    1.0777 H         1 <0>         0.1103
     38 H15       -10.8283   -0.0499    4.5805 H         1 <0>         0.1437
     39 H16       -12.5921    1.6403    4.2541 H         1 <0>         0.1443
     40 H17       -12.9804    2.6169    2.0356 H         1 <0>         0.1443
     41 H18       -11.6107    1.9184    0.1093 H         1 <0>         0.1437
@<TRIPOS>BOND
     1    1    2 1
     2    1   24 1
     3    1   25 1
     4    1   26 1
     5    2    3 1
     6    2    4 1
     7    2   27 1
     8    3   28 1
     9    3   29 1
    10    3   30 1
    11    4    5 am
    12    4   31 1
    13    5    6 2
    14    5    7 am
    15    7    8 1
    16    7   32 1
    17    8    9 am
    18    8   33 1
    19    9   10 2
    20    9   11 1
    21   11   12 1
    22   11   34 1
    23   11   35 1
    24   12   13 1
    25   12   36 1
    26   12   37 1
    27   13   22 am
    28   13   14 am
    29   14   15 2
    30   14   16 1
    31   16   21 ar
    32   16   17 ar
    33   17   18 ar
    34   17   38 1
    35   18   19 ar
    36   18   39 1
    37   19   20 ar
    38   19   40 1
    39   20   21 ar
    40   20   41 1
    41   21   22 1
    42   22   23 2
@<TRIPOS>MOLECULE
ZINC67624141
   48    48     0     0     0
SMALL
USER_CHARGES

@<TRIPOS>ATOM
      1 C1         -0.0187    1.5258    0.0104 C.3       1 <0>        -0.1648
      2 C2          0.0021   -0.0041    0.0020 C.3       1 <0>         0.1682
      3 C3          0.7421   -0.5109    1.2415 C.3       1 <0>        -0.1651
      4 C4         -1.4333   -0.5336    0.0129 C.3       1 <0>        -0.1573
      5 N1          0.6878   -0.4765   -1.2033 N.am      1 <0>        -0.7186
      6 C5          1.9715   -0.1323   -1.4270 C.2       1 <0>         0.5130
      7 O1          2.5590    0.5687   -0.6305 O.2       1 <0>        -0.5323
      8 C6          2.6769   -0.6183   -2.6669 C.3       1 <0>         0.1191
      9 N2          4.0513   -0.1112   -2.6773 N.am      1 <0>        -0.7349
     10 C7          4.8758   -0.4200   -3.6977 C.2       1 <0>         0.7106
     11 O2          4.4790   -1.1195   -4.6096 O.2       1 <0>        -0.5864
     12 N3          6.1402    0.0465   -3.7073 N.am      1 <0>        -0.7393
     13 C8          7.0365   -0.2892   -4.8164 C.3       1 <0>         0.1534
     14 H1          6.8240   -1.3007   -5.1625 H         1 <0>         0.0974
     15 C9          6.8207    0.6994   -5.9646 C.3       1 <0>        -0.1289
     16 C10         7.7331    0.3298   -7.1364 C.3       1 <0>        -0.1291
     17 C11         9.1952    0.4207   -6.6884 C.3       1 <0>         0.1136
     18 N4          9.3770   -0.4164   -5.4948 N.pl3     1 <0>        -0.9968
     19 C12         8.4907   -0.2060   -4.3419 C.3       1 <0>         0.1113
     20 S1         10.5584   -1.5760   -5.4494 S.o2      1 <0>         2.6093
     21 O3         10.0854   -2.5392   -4.5179 O.2       1 <0>        -0.9515
     22 O4         10.7734   -1.9279   -6.8093 O.2       1 <0>        -0.9501
     23 C13        12.0182   -0.7285   -4.7850 C.3       1 <0>        -0.6727
     24 H2          1.0039    1.9031    0.0027 H         1 <0>         0.0777
     25 H3         -0.5459    1.8868   -0.8726 H         1 <0>         0.0549
     26 H4         -0.5289    1.8773    0.9072 H         1 <0>         0.0649
     27 H5          0.2319   -0.1594    2.1383 H         1 <0>         0.0649
     28 H6          0.7568   -1.6008    1.2356 H         1 <0>         0.0551
     29 H7          1.7647   -0.1336    1.2338 H         1 <0>         0.0778
     30 H8         -1.9605   -0.1726   -0.8702 H         1 <0>         0.0635
     31 H9         -1.4185   -1.6235    0.0069 H         1 <0>         0.0636
     32 H10        -1.9435   -0.1821    0.9097 H         1 <0>         0.0757
     33 H11         0.2179   -1.0371   -1.8404 H         1 <0>         0.4035
     34 H12         2.6917   -1.7081   -2.6729 H         1 <0>         0.0986
     35 H13         2.1497   -0.2572   -3.5499 H         1 <0>         0.0981
     36 H14         4.3679    0.4468   -1.9498 H         1 <0>         0.4081
     37 H15         6.4568    0.6045   -2.9798 H         1 <0>         0.3980
     38 H16         5.7805    0.6593   -6.2877 H         1 <0>         0.0738
     39 H17         7.0566    1.7078   -5.6247 H         1 <0>         0.0663
     40 H18         7.5146   -0.6876   -7.4608 H         1 <0>         0.0734
     41 H19         7.5621    1.0201   -7.9625 H         1 <0>         0.0812
     42 H20         9.8451    0.0639   -7.4874 H         1 <0>         0.0982
     43 H21         9.4405    1.4556   -6.4498 H         1 <0>         0.0721
     44 H22         8.6789    0.7775   -3.9115 H         1 <0>         0.0759
     45 H23         8.6753   -0.9763   -3.5931 H         1 <0>         0.1017
     46 H24        11.7932   -0.3430   -3.7906 H         1 <0>         0.1275
     47 H25        12.8492   -1.4310   -4.7229 H         1 <0>         0.1293
     48 H26        12.2892    0.0977   -5.4423 H         1 <0>         0.1282
@<TRIPOS>BOND
     1    1    2 1
     2    1   24 1
     3    1   25 1
     4    1   26 1
     5    2    3 1
     6    2    4 1
     7    2    5 1
     8    3   27 1
     9    3   28 1
    10    3   29 1
    11    4   30 1
    12    4   31 1
    13    4   32 1
    14    5    6 am
    15    5   33 1
    16    6    7 2
    17    6    8 1
    18    8    9 1
    19    8   34 1
    20    8   35 1
    21    9   10 am
    22    9   36 1
    23   10   11 2
    24   10   12 am
    25   12   13 1
    26   12   37 1
    27   13   14 1
    28   13   19 1
    29   13   15 1
    30   15   16 1
    31   15   38 1
    32   15   39 1
    33   16   17 1
    34   16   40 1
    35   16   41 1
    36   17   18 1
    37   17   42 1
    38   17   43 1
    39   18   19 1
    40   18   20 1
    41   19   44 1
    42   19   45 1
    43   20   21 2
    44   20   22 2
    45   20   23 1
    46   23   46 1
    47   23   47 1
    48   23   48 1
@<TRIPOS>MOLECULE
ZINC12303482
   56    59     0     0     0
SMALL
USER_CHARGES
N-[(4S)-6,6-dimethyl-1-(p-tolyl)-5,7-dihydro-4H-indazol-4-yl]-2-(1-methylpyrrol-3-yl)acetamide
@<TRIPOS>ATOM
      1 C1         -4.0944    7.7046    0.0685 C.3       1 <0>        -0.1172
      2 C2         -3.1870    6.5014    0.0566 C.ar      1 <0>        -0.0837
      3 C3         -1.9931    6.5445   -0.6397 C.ar      1 <0>        -0.1017
      4 C4         -1.1594    5.4434   -0.6525 C.ar      1 <0>        -0.1213
      5 C5         -1.5209    4.2927    0.0352 C.ar      1 <0>         0.1442
      6 C6         -2.7224    4.2509    0.7295 C.ar      1 <0>        -0.1022
      7 C7         -3.5497    5.3568    0.7425 C.ar      1 <0>        -0.1029
      8 N1         -0.6770    3.1734    0.0238 N.pl3     1 <0>        -0.3196
      9 C8          0.6636    3.1894    0.1428 C.2       1 <0>         0.0993
     10 C9          1.1015    1.9060    0.0809 C.2       1 <0>        -0.2431
     11 C10        -0.0089    1.0795   -0.0796 C.2       1 <0>         0.0820
     12 N2         -1.0785    1.8366   -0.1191 N.2       1 <0>        -0.2938
     13 C11         2.5518    1.5018    0.1738 C.3       1 <0>         0.2269
     14 H1          2.7585    1.1016    1.1664 H         1 <0>         0.0975
     15 C12         3.4167    2.7438   -0.0736 C.3       1 <0>        -0.1164
     16 C13         2.9307    3.8911    0.8162 C.3       1 <0>        -0.0512
     17 C14         1.5672    4.3844    0.3166 C.3       1 <0>        -0.0492
     18 C15         2.7971    3.3967    2.2579 C.3       1 <0>        -0.1510
     19 C16         3.9395    5.0402    0.7628 C.3       1 <0>        -0.1418
     20 N3          2.8466    0.4853   -0.8391 N.am      1 <0>        -0.7285
     21 C17         2.6041   -0.8148   -0.5797 C.2       1 <0>         0.5131
     22 O1          2.1417   -1.1433    0.4923 O.2       1 <0>        -0.5235
     23 C18         2.9074   -1.8604   -1.6217 C.3       1 <0>        -0.0645
     24 C19         2.5481   -3.2224   -1.0861 C.2       1 <0>        -0.1520
     25 C20         1.2998   -3.8640   -1.2084 C.2       1 <0>        -0.1838
     26 C21         1.3990   -5.0606   -0.5947 C.2       1 <0>        -0.0172
     27 N4          2.6630   -5.1814   -0.0980 N.pl3     1 <0>        -0.4519
     28 C22         3.3643   -4.0536   -0.4067 C.2       1 <0>        -0.0001
     29 C23         3.1833   -6.3346    0.6406 C.3       1 <0>         0.0738
     30 H2         -4.7902    7.6431   -0.7683 H         1 <0>         0.0741
     31 H3         -4.6527    7.7294    1.0043 H         1 <0>         0.0694
     32 H4         -3.4965    8.6115   -0.0220 H         1 <0>         0.0693
     33 H5         -1.7125    7.4398   -1.1745 H         1 <0>         0.1329
     34 H6         -0.2274    5.4773   -1.1971 H         1 <0>         0.1290
     35 H7         -3.0084    3.3557    1.2617 H         1 <0>         0.1322
     36 H8         -4.4830    5.3261    1.2852 H         1 <0>         0.1324
     37 H9          0.0089    0.0028   -0.1619 H         1 <0>         0.1838
     38 H10         4.4560    2.5157    0.1631 H         1 <0>         0.0781
     39 H11         3.3388    3.0380   -1.1203 H         1 <0>         0.0719
     40 H12         1.1345    5.0688    1.0463 H         1 <0>         0.0839
     41 H13         1.6889    4.8946   -0.6389 H         1 <0>         0.0866
     42 H14         3.7662    3.0467    2.6133 H         1 <0>         0.0609
     43 H15         2.4511    4.2134    2.8914 H         1 <0>         0.0564
     44 H16         2.0787    2.5778    2.2961 H         1 <0>         0.0640
     45 H17         4.0351    5.3923   -0.2643 H         1 <0>         0.0583
     46 H18         3.5935    5.8570    1.3962 H         1 <0>         0.0599
     47 H19         4.9084    4.6898    1.1185 H         1 <0>         0.0625
     48 H20         3.2164    0.7480   -1.6966 H         1 <0>         0.3988
     49 H21         2.3243   -1.6579   -2.5201 H         1 <0>         0.0973
     50 H22         3.9697   -1.8340   -1.8645 H         1 <0>         0.0944
     51 H23         0.4243   -3.4699   -1.7031 H         1 <0>         0.1324
     52 H24         0.6130   -5.7966   -0.5114 H         1 <0>         0.1593
     53 H25         4.3950   -3.8587   -0.1497 H         1 <0>         0.1568
     54 H26         3.6181   -7.0483   -0.0592 H         1 <0>         0.0714
     55 H27         3.9481   -6.0018    1.3422 H         1 <0>         0.0818
     56 H28         2.3707   -6.8119    1.1884 H         1 <0>         0.0824
@<TRIPOS>BOND
     1    1    2 1
     2    1   30 1
     3    1   31 1
     4    1   32 1
     5    2    7 ar
     6    2    3 ar
     7    3    4 ar
     8    3   33 1
     9    4    5 ar
    10    4   34 1
    11    5    6 ar
    12    5    8 1
    13    6    7 ar
    14    6   35 1
    15    7   36 1
    16    8   12 1
    17    8    9 1
    18    9   17 1
    19    9   10 2
    20   10   11 1
    21   10   13 1
    22   11   12 2
    23   11   37 1
    24   13   14 1
    25   13   15 1
    26   13   20 1
    27   15   16 1
    28   15   38 1
    29   15   39 1
    30   16   17 1
    31   16   18 1
    32   16   19 1
    33   17   40 1
    34   17   41 1
    35   18   42 1
    36   18   43 1
    37   18   44 1
    38   19   45 1
    39   19   46 1
    40   19   47 1
    41   20   21 am
    42   20   48 1
    43   21   22 2
    44   21   23 1
    45   23   24 1
    46   23   49 1
    47   23   50 1
    48   24   28 2
    49   24   25 1
    50   25   26 2
    51   25   51 1
    52   26   27 1
    53   26   52 1
    54   27   28 1
    55   27   29 1
    56   28   53 1
    57   29   54 1
    58   29   55 1
    59   29   56 1
@<TRIPOS>MOLECULE
ZINC20768499
   44    46     0     0     0
SMALL
USER_CHARGES
2,5-difluoro-N-[(4-pyrrolidin-1-ylsulfonylphenyl)methyl]benzamide
@<TRIPOS>ATOM
      1 C1          0.0021   -0.0041    0.0020 C.ar      1 <0>        -0.1200
      2 C2         -0.0167    1.3781    0.0096 C.ar      1 <0>        -0.0203
      3 C3          1.1709    2.0855    0.0021 C.ar      1 <0>        -0.6703
      4 C4          2.3773    1.4107   -0.0145 C.ar      1 <0>        -0.0199
      5 C5          2.3961    0.0285   -0.0212 C.ar      1 <0>        -0.1199
      6 C6          1.2084   -0.6789   -0.0132 C.ar      1 <0>        -0.0542
      7 C7          1.2289   -2.1857   -0.0205 C.3       1 <0>         0.1565
      8 N1          1.2218   -2.6675   -1.4040 N.am      1 <0>        -0.7321
      9 C8          1.2373   -3.9913   -1.6566 C.2       1 <0>         0.5620
     10 O1          1.2572   -4.7855   -0.7365 O.2       1 <0>        -0.5174
     11 C9          1.2301   -4.4770   -3.0514 C.ar      1 <0>        -0.1454
     12 C10         1.2014   -3.5675   -4.1109 C.ar      1 <0>        -0.0947
     13 C11         1.2002   -4.0284   -5.4124 C.ar      1 <0>         0.0855
     14 C12         1.2167   -5.3909   -5.6690 C.ar      1 <0>        -0.0954
     15 C13         1.2393   -6.2969   -4.6259 C.ar      1 <0>        -0.1317
     16 C14         1.2461   -5.8495   -3.3172 C.ar      1 <0>         0.1522
     17 F1          1.2687   -6.7364   -2.2983 F         1 <0>        -0.1079
     18 F2          1.1777   -3.1497   -6.4383 F         1 <0>        -0.1285
     19 S1          1.1470    3.8473    0.0112 S.o2      1 <0>         2.7072
     20 O2          2.3816    4.2732   -0.5490 O.2       1 <0>        -0.9496
     21 O3         -0.1088    4.2393   -0.5259 O.2       1 <0>        -0.9494
     22 N2          1.1552    4.3289    1.5957 N.pl3     1 <0>        -1.0140
     23 C15        -0.0352    4.5679    2.4247 C.3       1 <0>         0.1130
     24 C16         0.4580    5.0217    3.8147 C.3       1 <0>        -0.1322
     25 C17         1.8803    5.5651    3.5162 C.3       1 <0>        -0.1247
     26 C18         2.3573    4.5950    2.4066 C.3       1 <0>         0.1168
     27 H1         -0.9258   -0.5567    0.0083 H         1 <0>         0.1368
     28 H2         -0.9592    1.9054    0.0170 H         1 <0>         0.1430
     29 H3          3.3052    1.9634   -0.0201 H         1 <0>         0.1433
     30 H4          3.3386   -0.4987   -0.0324 H         1 <0>         0.1369
     31 H5          2.1371   -2.5425    0.4874 H         1 <0>         0.0854
     32 H6          0.3411   -2.5671    0.5051 H         1 <0>         0.0853
     33 H7          1.2038   -1.9488   -2.2366 H         1 <0>         0.4226
     34 H8          1.1840   -2.5060   -3.9126 H         1 <0>         0.1478
     35 H9          1.2115   -5.7457   -6.6891 H         1 <0>         0.1541
     36 H10         1.2514   -7.3568   -4.8330 H         1 <0>         0.1566
     37 H11        -0.6544    5.3495    1.9604 H         1 <0>         0.0748
     38 H12        -0.6180    3.6385    2.5061 H         1 <0>         0.0656
     39 H13        -0.2173    5.7954    4.2087 H         1 <0>         0.0836
     40 H14         0.4682    4.1607    4.4993 H         1 <0>         0.0765
     41 H15         1.8104    6.6099    3.1792 H         1 <0>         0.0802
     42 H16         2.4913    5.5146    4.4295 H         1 <0>         0.0866
     43 H17         2.7335    3.6501    2.8256 H         1 <0>         0.0691
     44 H18         3.1333    5.0500    1.7735 H         1 <0>         0.0861
@<TRIPOS>BOND
     1    1    6 ar
     2    1    2 ar
     3    1   27 1
     4    2    3 ar
     5    2   28 1
     6    3    4 ar
     7    3   19 1
     8    4    5 ar
     9    4   29 1
    10    5    6 ar
    11    5   30 1
    12    6    7 1
    13    7    8 1
    14    7   31 1
    15    7   32 1
    16    8    9 am
    17    8   33 1
    18    9   10 2
    19    9   11 1
    20   11   16 ar
    21   11   12 ar
    22   12   13 ar
    23   12   34 1
    24   13   14 ar
    25   13   18 1
    26   14   15 ar
    27   14   35 1
    28   15   16 ar
    29   15   36 1
    30   16   17 1
    31   19   20 2
    32   19   21 2
    33   19   22 1
    34   22   26 1
    35   22   23 1
    36   23   24 1
    37   23   37 1
    38   23   38 1
    39   24   25 1
    40   24   39 1
    41   24   40 1
    42   25   26 1
    43   25   41 1
    44   25   42 1
    45   26   43 1
    46   26   44 1
@<TRIPOS>MOLECULE
ZINC38755733
   43    46     0     0     0
SMALL
USER_CHARGES

@<TRIPOS>ATOM
      1 C1          2.2426   -2.4302   -3.0340 C.ar      1 <0>        -0.0862
      2 C2          3.4281   -1.7204   -3.0671 C.ar      1 <0>        -0.1113
      3 C3          3.7907   -1.0330   -4.2117 C.ar      1 <0>        -0.0258
      4 C4          2.9662   -1.0565   -5.3225 C.ar      1 <0>        -0.1119
      5 C5          1.7809   -1.7666   -5.2881 C.ar      1 <0>        -0.0868
      6 C6          1.4192   -2.4533   -4.1441 C.ar      1 <0>        -0.1100
      7 C7          0.1269   -3.2277   -4.1074 C.3       1 <0>         0.1613
      8 N1         -0.9506   -2.3574   -3.6302 N.am      1 <0>        -0.7231
      9 C8         -2.2043   -2.8384   -3.5150 C.2       1 <0>         0.5230
     10 O1         -2.4405   -3.9918   -3.8064 O.2       1 <0>        -0.5374
     11 C9         -3.3127   -1.9432   -3.0241 C.3       1 <0>        -0.1633
     12 C10        -4.6490   -2.6807   -3.1307 C.3       1 <0>         0.1331
     13 H1         -4.5976   -3.5927   -2.5360 H         1 <0>         0.1225
     14 C11        -4.8970   -3.0589   -4.6094 C.3       1 <0>        -0.0914
     15 S1         -6.7323   -2.9068   -4.6389 S.3       1 <0>        -0.0182
     16 C12        -6.9170   -1.8259   -3.2333 C.2       1 <0>         0.3848
     17 N2         -5.7111   -1.8219   -2.5949 N.am      1 <0>        -0.5436
     18 C13        -5.6020   -1.0146   -1.4971 C.2       1 <0>         0.5440
     19 O2         -4.5408   -0.9410   -0.8994 O.2       1 <0>        -0.5305
     20 C14        -6.7052   -0.2710   -1.0562 C.2       1 <0>        -0.2727
     21 C15        -7.8818   -0.3519   -1.7414 C.2       1 <0>         0.1848
     22 N3         -7.9500   -1.1330   -2.8133 N.2       1 <0>        -0.4963
     23 C16        -8.9277    0.5224   -1.0857 C.3       1 <0>        -0.0709
     24 C17        -8.3764    0.8191    0.3257 C.3       1 <0>        -0.1182
     25 C18        -6.8535    0.6749    0.1160 C.3       1 <0>        -0.0501
     26 Cl1         5.2793   -0.1408   -4.2540 Cl        1 <0>        -0.0635
     27 H2          1.9616   -2.9706   -2.1421 H         1 <0>         0.1353
     28 H3          4.0712   -1.7022   -2.1996 H         1 <0>         0.1374
     29 H4          3.2485   -0.5197   -6.2161 H         1 <0>         0.1371
     30 H5          1.1370   -1.7847   -6.1550 H         1 <0>         0.1349
     31 H6         -0.1113   -3.5848   -5.1094 H         1 <0>         0.0823
     32 H7          0.2321   -4.0783   -3.4340 H         1 <0>         0.0819
     33 H8         -0.7617   -1.4350   -3.3972 H         1 <0>         0.4053
     34 H9         -3.1285   -1.6737   -1.9841 H         1 <0>         0.1448
     35 H10        -3.3467   -1.0398   -3.6330 H         1 <0>         0.1002
     36 H11        -4.4262   -2.3477   -5.2881 H         1 <0>         0.1169
     37 H12        -4.5772   -4.0794   -4.8198 H         1 <0>         0.1576
     38 H13        -9.0519    1.4490   -1.6461 H         1 <0>         0.1003
     39 H14        -9.8767   -0.0095   -1.0172 H         1 <0>         0.0940
     40 H15        -8.6313    1.8321    0.6371 H         1 <0>         0.0894
     41 H16        -8.7402    0.0869    1.0466 H         1 <0>         0.0794
     42 H17        -6.3873    0.2513    1.0056 H         1 <0>         0.0796
     43 H18        -6.4106    1.6425   -0.1200 H         1 <0>         0.0816
@<TRIPOS>BOND
     1    1    6 ar
     2    1    2 ar
     3    1   27 1
     4    2    3 ar
     5    2   28 1
     6    3    4 ar
     7    3   26 1
     8    4    5 ar
     9    4   29 1
    10    5    6 ar
    11    5   30 1
    12    6    7 1
    13    7    8 1
    14    7   31 1
    15    7   32 1
    16    8    9 am
    17    8   33 1
    18    9   10 2
    19    9   11 1
    20   11   12 1
    21   11   34 1
    22   11   35 1
    23   12   13 1
    24   12   17 1
    25   12   14 1
    26   14   15 1
    27   14   36 1
    28   14   37 1
    29   15   16 1
    30   16   22 2
    31   16   17 1
    32   17   18 am
    33   18   19 2
    34   18   20 1
    35   20   25 1
    36   20   21 2
    37   21   22 1
    38   21   23 1
    39   23   24 1
    40   23   38 1
    41   23   39 1
    42   24   25 1
    43   24   40 1
    44   24   41 1
    45   25   42 1
    46   25   43 1
@<TRIPOS>MOLECULE
ZINC58340494
   37    39     0     0     0
SMALL
USER_CHARGES

@<TRIPOS>ATOM
      1 C1         -0.0112    1.3932   -0.0068 C.ar      1 <0>        -0.1525
      2 C2          1.1790    2.1094   -0.0145 C.ar      1 <0>        -0.0493
      3 C3          2.3937    1.4605   -0.0245 C.ar      1 <0>        -0.1688
      4 C4          2.4294    0.0690   -0.0264 C.ar      1 <0>         0.1529
      5 C5          1.2175   -0.6500   -0.0181 C.ar      1 <0>        -0.2062
      6 C6         -0.0004    0.0259   -0.0086 C.ar      1 <0>        -0.0244
      7 C7          1.3037   -2.1203   -0.0199 C.2       1 <0>         0.3878
      8 O1          0.3055   -2.8215   -0.0136 O.2       1 <0>        -0.4687
      9 C8          2.6103   -2.6801   -0.0300 C.2       1 <0>        -0.0385
     10 N1          3.6559   -1.9067   -0.0371 N.2       1 <0>        -0.1830
     11 N2          3.6125   -0.6258   -0.0357 N.pl3     1 <0>        -0.3412
     12 C9          4.8714    0.1234   -0.0449 C.3       1 <0>         0.1340
     13 C10         5.3206    0.3835    1.3944 C.3       1 <0>        -0.1622
     14 C11         6.6156    1.1542    1.3849 C.2       1 <0>         0.5237
     15 O2          7.1288    1.4648    0.3307 O.2       1 <0>        -0.5133
     16 N3          7.2036    1.4982    2.5478 N.am      1 <0>        -0.6718
     17 C12         8.4533    2.1283    2.5406 C.ar      1 <0>         0.1560
     18 C13         9.3759    1.8549    3.5419 C.ar      1 <0>        -0.1373
     19 C14        10.6085    2.4777    3.5321 C.ar      1 <0>        -0.0710
     20 C15        10.9246    3.3732    2.5259 C.ar      1 <0>        -0.1041
     21 C16        10.0073    3.6474    1.5270 C.ar      1 <0>        -0.0714
     22 C17         8.7752    3.0235    1.5290 C.ar      1 <0>        -0.1147
     23 Br1        12.6132    4.2244    2.5161 Br        1 <0>        -0.0470
     24 H1         -0.9534    1.9210    0.0051 H         1 <0>         0.1350
     25 H2          1.1515    3.1891   -0.0130 H         1 <0>         0.1367
     26 H3          3.3128    2.0277   -0.0311 H         1 <0>         0.1389
     27 H4         -0.9289   -0.5256   -0.0026 H         1 <0>         0.1420
     28 H5          2.7354   -3.7528   -0.0314 H         1 <0>         0.1952
     29 H6          5.6349   -0.4554   -0.5648 H         1 <0>         0.1157
     30 H7          4.7246    1.0742   -0.5572 H         1 <0>         0.1110
     31 H8          4.5572    0.9622    1.9143 H         1 <0>         0.1070
     32 H9          5.4674   -0.5674    1.9066 H         1 <0>         0.1129
     33 H10         6.7606    1.3092    3.3898 H         1 <0>         0.4158
     34 H11         9.1295    1.1563    4.3278 H         1 <0>         0.1362
     35 H12        11.3263    2.2657    4.3108 H         1 <0>         0.1385
     36 H13        10.2565    4.3471    0.7429 H         1 <0>         0.1377
     37 H14         8.0611    3.2348    0.7468 H         1 <0>         0.1484
@<TRIPOS>BOND
     1    1    6 ar
     2    1    2 ar
     3    1   24 1
     4    2    3 ar
     5    2   25 1
     6    3    4 ar
     7    3   26 1
     8    4   11 1
     9    4    5 ar
    10    5    6 ar
    11    5    7 1
    12    6   27 1
    13    7    8 2
    14    7    9 1
    15    9   10 2
    16    9   28 1
    17   10   11 1
    18   11   12 1
    19   12   13 1
    20   12   29 1
    21   12   30 1
    22   13   14 1
    23   13   31 1
    24   13   32 1
    25   14   15 2
    26   14   16 am
    27   16   17 1
    28   16   33 1
    29   17   22 ar
    30   17   18 ar
    31   18   19 ar
    32   18   34 1
    33   19   20 ar
    34   19   35 1
    35   20   21 ar
    36   20   23 1
    37   21   22 ar
    38   21   36 1
    39   22   37 1
@<TRIPOS>MOLECULE
ZINC67572177
   44    46     0     0     0
SMALL
USER_CHARGES

@<TRIPOS>ATOM
      1 C1          5.1156   -6.9342    0.2672 C.ar      1 <0>        -0.0996
      2 C2          6.2086   -6.3216   -0.3185 C.ar      1 <0>        -0.0930
      3 C3          6.0961   -5.0420   -0.8304 C.ar      1 <0>        -0.1506
      4 C4          4.8910   -4.3711   -0.7579 C.ar      1 <0>        -0.1035
      5 C5          3.7912   -4.9834   -0.1704 C.ar      1 <0>         0.1329
      6 C6          3.9077   -6.2694    0.3425 C.ar      1 <0>        -0.0989
      7 N1          2.5707   -4.3074   -0.0951 N.am      1 <0>        -0.6376
      8 C7          1.4143   -4.9883   -0.2202 C.2       1 <0>         0.5145
      9 O1          1.4299   -6.1980   -0.3181 O.2       1 <0>        -0.4886
     10 C8          0.1137   -4.2543   -0.2386 C.2       1 <0>         0.5135
     11 O2          0.1020   -3.0410   -0.2600 O.2       1 <0>        -0.5101
     12 N2         -1.0469   -4.9395   -0.2314 N.am      1 <0>        -0.5815
     13 C9         -2.3405   -4.2381   -0.2203 C.3       1 <0>         0.0702
     14 C10        -3.1980   -4.8233    0.9076 C.3       1 <0>         0.0511
     15 O3         -3.2480   -6.2455    0.7714 O.3       1 <0>        -0.3695
     16 C11        -1.9779   -6.8902    0.8937 C.3       1 <0>         0.1232
     17 H1         -1.5336   -6.6395    1.8569 H         1 <0>         0.0778
     18 C12        -1.0579   -6.4109   -0.2406 C.3       1 <0>         0.0304
     19 C13        -2.1597   -8.3831    0.7966 C.ar      1 <0>        -0.0671
     20 C14        -3.0500   -8.9121   -0.1194 C.ar      1 <0>        -0.0697
     21 C15        -3.2185  -10.2809   -0.2103 C.ar      1 <0>        -0.1260
     22 C16        -2.4952  -11.1236    0.6158 C.ar      1 <0>         0.0753
     23 C17        -1.6021  -10.5931    1.5341 C.ar      1 <0>         0.0690
     24 C18        -1.4321   -9.2221    1.6194 C.ar      1 <0>        -0.1095
     25 F1         -0.8954  -11.4136    2.3418 F         1 <0>        -0.1253
     26 F2         -2.6597  -12.4617    0.5278 F         1 <0>        -0.1256
     27 C19         7.2898   -4.3786   -1.4676 C.3       1 <0>         0.3145
     28 F3          8.1143   -5.3529   -2.0403 F         1 <0>        -0.1962
     29 F4          6.8564   -3.4925   -2.4597 F         1 <0>        -0.1978
     30 H2          5.2057   -7.9354    0.6620 H         1 <0>         0.1378
     31 H3          7.1523   -6.8437   -0.3758 H         1 <0>         0.1367
     32 H4          4.8039   -3.3714   -1.1573 H         1 <0>         0.1390
     33 H5          3.0545   -6.7485    0.7996 H         1 <0>         0.1450
     34 H6          2.5556   -3.3480    0.0474 H         1 <0>         0.4262
     35 H7         -2.1798   -3.1743   -0.0452 H         1 <0>         0.1085
     36 H8         -2.8439   -4.3814   -1.1763 H         1 <0>         0.0876
     37 H9         -2.7581   -4.5650    1.8709 H         1 <0>         0.0607
     38 H10        -4.2072   -4.4160    0.8465 H         1 <0>         0.1167
     39 H11        -1.4345   -6.7692   -1.1987 H         1 <0>         0.0855
     40 H12        -0.0476   -6.7866   -0.0789 H         1 <0>         0.1638
     41 H13        -3.6146   -8.2551   -0.7643 H         1 <0>         0.1463
     42 H14        -3.9147  -10.6930   -0.9258 H         1 <0>         0.1501
     43 H15        -0.7340   -8.8078    2.3316 H         1 <0>         0.1479
     44 H16         7.8484   -3.8300   -0.7092 H         1 <0>         0.1258
@<TRIPOS>BOND
     1    1    6 ar
     2    1    2 ar
     3    1   30 1
     4    2    3 ar
     5    2   31 1
     6    3    4 ar
     7    3   27 1
     8    4    5 ar
     9    4   32 1
    10    5    6 ar
    11    5    7 1
    12    6   33 1
    13    7    8 am
    14    7   34 1
    15    8    9 2
    16    8   10 1
    17   10   11 2
    18   10   12 am
    19   12   18 1
    20   12   13 1
    21   13   14 1
    22   13   35 1
    23   13   36 1
    24   14   15 1
    25   14   37 1
    26   14   38 1
    27   15   16 1
    28   16   17 1
    29   16   18 1
    30   16   19 1
    31   18   39 1
    32   18   40 1
    33   19   24 ar
    34   19   20 ar
    35   20   21 ar
    36   20   41 1
    37   21   22 ar
    38   21   42 1
    39   22   23 ar
    40   22   26 1
    41   23   24 ar
    42   23   25 1
    43   24   43 1
    44   27   28 1
    45   27   29 1
    46   27   44 1
@<TRIPOS>MOLECULE
ZINC11910990
   63    67     0     0     0
SMALL
USER_CHARGES
4-[3-[(2R)-2-(1-naphthylmethyl)-5-oxo-pyrrolidin-2-yl]propanoyl]-1-phenyl-piperazin-2-one
@<TRIPOS>ATOM
      1 C1          0.9165    3.6269    0.4290 C.ar      1 <0>        -0.1115
      2 C2          0.2924    3.2176    1.5931 C.ar      1 <0>        -0.1109
      3 C3         -0.8423    2.4326    1.5308 C.ar      1 <0>        -0.1057
      4 C4         -1.3536    2.0505    0.2974 C.ar      1 <0>         0.1253
      5 C5         -0.7283    2.4688   -0.8699 C.ar      1 <0>        -0.1079
      6 C6          0.4065    3.2529   -0.8008 C.ar      1 <0>        -0.1109
      7 N1         -2.4997    1.2505    0.2310 N.am      1 <0>        -0.5606
      8 C7         -3.7929    1.9204    0.2115 C.3       1 <0>         0.1002
      9 C8         -4.8646    1.0093   -0.3949 C.3       1 <0>         0.0972
     10 N2         -4.7389   -0.3200    0.2264 N.am      1 <0>        -0.6222
     11 C9         -3.4717   -1.0394    0.0291 C.3       1 <0>         0.1002
     12 C10        -2.3315   -0.0721    0.1953 C.2       1 <0>         0.5103
     13 O1         -1.2076   -0.5155    0.3021 O.2       1 <0>        -0.5227
     14 C11        -5.7443   -0.8552    0.9469 C.2       1 <0>         0.5255
     15 O2         -6.7792   -0.2402    1.0939 O.2       1 <0>        -0.5242
     16 C12        -5.5826   -2.2179    1.5697 C.3       1 <0>        -0.1500
     17 C13        -6.8599   -2.5874    2.3267 C.3       1 <0>        -0.1034
     18 C14        -6.6868   -3.9604    2.9793 C.3       1 <0>         0.1664
     19 C15        -8.0344   -4.4547    3.5502 C.3       1 <0>        -0.1200
     20 C16        -7.9481   -5.9764    3.2896 C.3       1 <0>        -0.1627
     21 C17        -6.9879   -6.0998    2.1271 C.2       1 <0>         0.5282
     22 O3         -6.8587   -7.0872    1.4347 O.2       1 <0>        -0.5294
     23 N3         -6.2992   -4.9559    1.9729 N.am      1 <0>        -0.7223
     24 C18        -5.6341   -3.8902    4.0874 C.3       1 <0>        -0.0908
     25 C19        -5.3881   -5.2725    4.6349 C.ar      1 <0>        -0.0703
     26 C20        -6.0502   -5.6960    5.7463 C.ar      1 <0>        -0.1151
     27 C21        -5.8401   -6.9726    6.2637 C.ar      1 <0>        -0.1180
     28 C22        -4.9584   -7.8294    5.6793 C.ar      1 <0>        -0.1047
     29 C23        -4.2521   -7.4255    4.5338 C.ar      1 <0>        -0.0495
     30 C24        -4.4700   -6.1289    4.0041 C.ar      1 <0>        -0.0382
     31 C25        -3.7630   -5.7250    2.8585 C.ar      1 <0>        -0.1053
     32 C26        -2.8812   -6.5816    2.2747 C.ar      1 <0>        -0.1124
     33 C27        -2.6670   -7.8565    2.7956 C.ar      1 <0>        -0.1130
     34 C28        -3.3334   -8.2820    3.9032 C.ar      1 <0>        -0.1045
     35 H1          1.8038    4.2404    0.4803 H         1 <0>         0.1272
     36 H2          0.6929    3.5116    2.5520 H         1 <0>         0.1282
     37 H3         -1.3289    2.1126    2.4403 H         1 <0>         0.1220
     38 H4         -1.1261    2.1770   -1.8306 H         1 <0>         0.1231
     39 H5          0.8961    3.5745   -1.7081 H         1 <0>         0.1286
     40 H6         -4.0759    2.1837    1.2307 H         1 <0>         0.0757
     41 H7         -3.7171    2.8294   -0.3852 H         1 <0>         0.0939
     42 H8         -4.7163    0.9275   -1.4717 H         1 <0>         0.0842
     43 H9         -5.8536    1.4190   -0.1900 H         1 <0>         0.1178
     44 H10        -3.4459   -1.4652   -0.9739 H         1 <0>         0.1112
     45 H11        -3.3852   -1.8360    0.7681 H         1 <0>         0.1215
     46 H12        -5.3973   -2.9549    0.7883 H         1 <0>         0.0951
     47 H13        -4.7411   -2.2032    2.2624 H         1 <0>         0.0999
     48 H14        -7.0546   -1.8411    3.0969 H         1 <0>         0.0915
     49 H15        -7.6983   -2.6189    1.6310 H         1 <0>         0.0852
     50 H16        -8.1063   -4.2452    4.6174 H         1 <0>         0.0922
     51 H17        -8.8722   -4.0134    3.0103 H         1 <0>         0.0875
     52 H18        -8.9268   -6.3734    3.0198 H         1 <0>         0.0982
     53 H19        -7.5547   -6.4918    4.1657 H         1 <0>         0.1086
     54 H20        -5.6316   -4.8074    1.2851 H         1 <0>         0.4042
     55 H21        -4.7053   -3.4897    3.6813 H         1 <0>         0.0808
     56 H22        -5.9909   -3.2410    4.8869 H         1 <0>         0.0920
     57 H23        -6.7518   -5.0341    6.2321 H         1 <0>         0.1241
     58 H24        -6.3815   -7.2854    7.1444 H         1 <0>         0.1239
     59 H25        -4.8029   -8.8145    6.0937 H         1 <0>         0.1259
     60 H26        -3.9187   -4.7401    2.4437 H         1 <0>         0.1200
     61 H27        -2.3389   -6.2686    1.3947 H         1 <0>         0.1218
     62 H28        -1.9612   -8.5165    2.3132 H         1 <0>         0.1224
     63 H29        -3.1575   -9.2728    4.2954 H         1 <0>         0.1259
@<TRIPOS>BOND
     1    1    6 ar
     2    1    2 ar
     3    1   35 1
     4    2    3 ar
     5    2   36 1
     6    3    4 ar
     7    3   37 1
     8    4    5 ar
     9    4    7 1
    10    5    6 ar
    11    5   38 1
    12    6   39 1
    13    7   12 am
    14    7    8 1
    15    8    9 1
    16    8   40 1
    17    8   41 1
    18    9   10 1
    19    9   42 1
    20    9   43 1
    21   10   11 1
    22   10   14 am
    23   11   12 1
    24   11   44 1
    25   11   45 1
    26   12   13 2
    27   14   15 2
    28   14   16 1
    29   16   17 1
    30   16   46 1
    31   16   47 1
    32   17   18 1
    33   17   48 1
    34   17   49 1
    35   18   23 1
    36   18   19 1
    37   18   24 1
    38   19   20 1
    39   19   50 1
    40   19   51 1
    41   20   21 1
    42   20   52 1
    43   20   53 1
    44   21   22 2
    45   21   23 am
    46   23   54 1
    47   24   25 1
    48   24   55 1
    49   24   56 1
    50   25   30 ar
    51   25   26 ar
    52   26   27 ar
    53   26   57 1
    54   27   28 ar
    55   27   58 1
    56   28   29 ar
    57   28   59 1
    58   29   34 ar
    59   29   30 ar
    60   30   31 ar
    61   31   32 ar
    62   31   60 1
    63   32   33 ar
    64   32   61 1
    65   33   34 ar
    66   33   62 1
    67   34   63 1
@<TRIPOS>MOLECULE
ZINC22561795
   43    45     0     0     0
SMALL
USER_CHARGES
4-(5-bromo-1,3-dioxo-isoindolin-2-yl)-N-(5-chloro-2-methoxy-phenyl)butanamide
@<TRIPOS>ATOM
      1 C1         -0.6293    3.2995    7.4617 C.3       1 <0>         0.0241
      2 O1         -0.5899    2.6804    6.1744 O.3       1 <0>        -0.3174
      3 C2          0.0826    1.5024    6.0761 C.ar      1 <0>         0.1010
      4 C3          0.6913    0.9553    7.1939 C.ar      1 <0>        -0.1755
      5 C4          1.3747   -0.2421    7.0930 C.ar      1 <0>        -0.0904
      6 C5          1.4532   -0.8977    5.8769 C.ar      1 <0>        -0.0482
      7 C6          0.8444   -0.3599    4.7576 C.ar      1 <0>        -0.0931
      8 C7          0.1612    0.8438    4.8513 C.ar      1 <0>         0.1404
      9 N1         -0.4531    1.3927    3.7179 N.am      1 <0>        -0.6750
     10 C8         -0.0024    1.0770    2.4876 C.2       1 <0>         0.5150
     11 O2          0.9955    0.3989    2.3628 O.2       1 <0>        -0.5194
     12 C9         -0.7384    1.5664    1.2670 C.3       1 <0>        -0.1355
     13 C10        -0.0238    1.0713    0.0079 C.3       1 <0>        -0.1255
     14 C11        -0.7710    1.5682   -1.2313 C.3       1 <0>         0.1085
     15 N2         -0.0867    1.0942   -2.4368 N.am      1 <0>        -0.5736
     16 C12         0.8875    1.7684   -3.0739 C.2       1 <0>         0.5757
     17 O3          1.3321    2.8500   -2.7460 O.2       1 <0>        -0.4525
     18 C13         1.3280    0.9719   -4.2381 C.ar      1 <0>        -0.1259
     19 C14         2.2761    1.1543   -5.2325 C.ar      1 <0>        -0.0368
     20 C15         2.4406    0.1872   -6.2109 C.ar      1 <0>        -0.0645
     21 C16         1.6646   -0.9580   -6.2022 C.ar      1 <0>        -0.0750
     22 C17         0.7114   -1.1536   -5.2132 C.ar      1 <0>        -0.0177
     23 C18         0.5369   -0.1949   -4.2287 C.ar      1 <0>        -0.1341
     24 C19        -0.3540   -0.0700   -3.0557 C.2       1 <0>         0.5779
     25 O4         -1.1872   -0.8825   -2.7087 O.2       1 <0>        -0.4519
     26 Br1         1.9041   -2.2652   -7.5475 Br        1 <0>        -0.0178
     27 Cl1         2.3125   -2.4014    5.7572 Cl        1 <0>        -0.0631
     28 H1         -1.2004    4.2376    7.4001 H         1 <0>         0.1054
     29 H2          0.3961    3.5157    7.7961 H         1 <0>         0.0591
     30 H3         -1.1139    2.6217    8.1798 H         1 <0>         0.0593
     31 H4          0.6316    1.4643    8.1446 H         1 <0>         0.1420
     32 H5          1.8483   -0.6672    7.9656 H         1 <0>         0.1378
     33 H6          0.9038   -0.8751    3.8103 H         1 <0>         0.1624
     34 H7         -1.3032    2.0813    3.8322 H         1 <0>         0.4433
     35 H8         -1.7681    1.1798    1.2802 H         1 <0>         0.1057
     36 H9         -0.7597    2.6662    1.2681 H         1 <0>         0.1047
     37 H10         1.0059    1.4579   -0.0053 H         1 <0>         0.0813
     38 H11        -0.0026   -0.0285    0.0068 H         1 <0>         0.0814
     39 H12        -1.8007    1.1815   -1.2181 H         1 <0>         0.1025
     40 H13        -0.7923    2.6680   -1.2302 H         1 <0>         0.1026
     41 H14         2.8848    2.0464   -5.2442 H         1 <0>         0.1545
     42 H15         3.1795    0.3285   -6.9859 H         1 <0>         0.1547
     43 H16         0.1079   -2.0493   -5.2112 H         1 <0>         0.1536
@<TRIPOS>BOND
     1    1    2 1
     2    1   28 1
     3    1   29 1
     4    1   30 1
     5    2    3 1
     6    3    8 ar
     7    3    4 ar
     8    4    5 ar
     9    4   31 1
    10    5    6 ar
    11    5   32 1
    12    6    7 ar
    13    6   27 1
    14    7    8 ar
    15    7   33 1
    16    8    9 1
    17    9   10 am
    18    9   34 1
    19   10   11 2
    20   10   12 1
    21   12   13 1
    22   12   35 1
    23   12   36 1
    24   13   14 1
    25   13   37 1
    26   13   38 1
    27   14   15 1
    28   14   39 1
    29   14   40 1
    30   15   24 am
    31   15   16 am
    32   16   17 2
    33   16   18 1
    34   18   23 ar
    35   18   19 ar
    36   19   20 ar
    37   19   41 1
    38   20   21 ar
    39   20   42 1
    40   21   22 ar
    41   21   26 1
    42   22   23 ar
    43   22   43 1
    44   23   24 1
    45   24   25 2
@<TRIPOS>MOLECULE
ZINC35893875
   66    70     0     0     0
SMALL
USER_CHARGES

@<TRIPOS>ATOM
      1 C1         -0.0254    1.3605    0.0120 C.ar      1 <0>        -0.1757
      2 C2          1.1606    2.0717    0.0182 C.ar      1 <0>        -0.0728
      3 C3          2.3682    1.4037    0.0074 C.ar      1 <0>        -0.1974
      4 C4          2.3922    0.0119   -0.0126 C.ar      1 <0>         0.2278
      5 C5          1.2038   -0.6949   -0.0281 C.ar      1 <0>        -0.1667
      6 C6         -0.0042   -0.0217   -0.0105 C.ar      1 <0>        -0.0682
      7 C7          1.2144   -2.2011   -0.0804 C.3       1 <0>        -0.0594
      8 C8          2.4824   -2.6584   -0.8000 C.3       1 <0>        -0.1222
      9 H1          2.5317   -3.7472   -0.7897 H         1 <0>         0.1146
     10 C9          3.7173   -2.0864   -0.0962 C.3       1 <0>         0.1789
     11 H2          3.7403   -2.4790    0.9204 H         1 <0>         0.0662
     12 N1          3.6386   -0.6386   -0.0080 N.pl3     1 <0>        -0.6028
     13 C10         4.8172    0.2121    0.1456 C.3       1 <0>         0.1101
     14 C11         6.0084   -0.2720   -0.6555 C.3       1 <0>         0.1146
     15 N2          6.1064   -1.7222   -0.6380 N.pl3     1 <0>        -0.6069
     16 C12         4.9555   -2.5833   -0.8240 C.3       1 <0>         0.1094
     17 C13         7.3583   -2.3086   -0.4340 C.ar      1 <0>         0.2198
     18 C14         7.4675   -3.6867   -0.2998 C.ar      1 <0>        -0.1910
     19 C15         8.7061   -4.2636   -0.0987 C.ar      1 <0>        -0.0581
     20 C16         9.8376   -3.4700   -0.0305 C.ar      1 <0>        -0.0943
     21 C17         9.7318   -2.0967   -0.1639 C.ar      1 <0>        -0.0578
     22 C18         8.4964   -1.5149   -0.3709 C.ar      1 <0>        -0.1886
     23 Cl1        11.3928   -4.1984    0.2234 Cl        1 <0>        -0.0799
     24 C19         2.4514   -2.1723   -2.2261 C.2       1 <0>         0.5212
     25 O1          3.3244   -1.4363   -2.6350 O.2       1 <0>        -0.5167
     26 N3          1.4536   -2.5554   -3.0472 N.am      1 <0>        -0.7289
     27 C20         1.4236   -2.0828   -4.4335 C.3       1 <0>         0.1241
     28 C21         0.1971   -2.6604   -5.1427 C.3       1 <0>        -0.1273
     29 C22         0.1656   -2.1669   -6.5906 C.3       1 <0>         0.0585
     30 N4         -1.0120   -2.7214   -7.2715 N.3       1 <0>        -0.5368
     31 C23        -0.9025   -4.1810   -7.4088 C.3       1 <0>         0.0136
     32 C24        -2.1736   -4.7230   -8.0679 C.3       1 <0>         0.0626
     33 O2         -2.3654   -4.0736   -9.3276 O.3       1 <0>        -0.3851
     34 C25        -2.4768   -2.6511   -9.2309 C.3       1 <0>         0.0629
     35 C26        -1.2088   -2.0881   -8.5836 C.3       1 <0>         0.0168
     36 H3         -0.9692    1.8852    0.0293 H         1 <0>         0.1181
     37 H4          1.1417    3.1515    0.0312 H         1 <0>         0.1199
     38 H5          3.2938    1.9602    0.0141 H         1 <0>         0.1258
     39 H6         -0.9311   -0.5759   -0.0142 H         1 <0>         0.1200
     40 H7          1.2045   -2.6021    0.9331 H         1 <0>         0.0866
     41 H8          0.3381   -2.5541   -0.6241 H         1 <0>         0.0818
     42 H9          4.5648    1.2221   -0.1772 H         1 <0>         0.0929
     43 H10         5.0927    0.2422    1.1998 H         1 <0>         0.0558
     44 H11         5.9055    0.0658   -1.6867 H         1 <0>         0.0654
     45 H12         6.9189    0.1519   -0.2319 H         1 <0>         0.0919
     46 H13         5.2008   -3.5804   -0.4584 H         1 <0>         0.0848
     47 H14         4.7340   -2.6475   -1.8893 H         1 <0>         0.0798
     48 H15         6.5846   -4.3065   -0.3522 H         1 <0>         0.1311
     49 H16         8.7916   -5.3352    0.0057 H         1 <0>         0.1316
     50 H17        10.6165   -1.4796   -0.1103 H         1 <0>         0.1320
     51 H18         8.4149   -0.4435   -0.4794 H         1 <0>         0.1324
     52 H19         0.7554   -3.1440   -2.7201 H         1 <0>         0.3993
     53 H20         1.3709   -0.9942   -4.4453 H         1 <0>         0.0678
     54 H21         2.3276   -2.4084   -4.9481 H         1 <0>         0.0652
     55 H22         0.2497   -3.7491   -5.1310 H         1 <0>         0.0696
     56 H23        -0.7070   -2.3348   -4.6282 H         1 <0>         0.0799
     57 H24         0.1130   -1.0782   -6.6023 H         1 <0>         0.0804
     58 H25         1.0697   -2.4925   -7.1051 H         1 <0>         0.0392
     59 H26        -0.0391   -4.4246   -8.0280 H         1 <0>         0.0439
     60 H27        -0.7830   -4.6314   -6.4234 H         1 <0>         0.0881
     61 H28        -2.0732   -5.7971   -8.2237 H         1 <0>         0.0988
     62 H29        -3.0301   -4.5266   -7.4230 H         1 <0>         0.0604
     63 H30        -2.5957   -2.2267  -10.2279 H         1 <0>         0.0997
     64 H31        -3.3421   -2.3944   -8.6198 H         1 <0>         0.0609
     65 H32        -1.3129   -1.0107   -8.4557 H         1 <0>         0.0880
     66 H33        -0.3503   -2.2982   -9.2216 H         1 <0>         0.0444
@<TRIPOS>BOND
     1    1    6 ar
     2    1    2 ar
     3    1   36 1
     4    2    3 ar
     5    2   37 1
     6    3    4 ar
     7    3   38 1
     8    4   12 1
     9    4    5 ar
    10    5    6 ar
    11    5    7 1
    12    6   39 1
    13    7    8 1
    14    7   40 1
    15    7   41 1
    16    8    9 1
    17    8   10 1
    18    8   24 1
    19   10   11 1
    20   10   16 1
    21   10   12 1
    22   12   13 1
    23   13   14 1
    24   13   42 1
    25   13   43 1
    26   14   15 1
    27   14   44 1
    28   14   45 1
    29   15   16 1
    30   15   17 1
    31   16   46 1
    32   16   47 1
    33   17   22 ar
    34   17   18 ar
    35   18   19 ar
    36   18   48 1
    37   19   20 ar
    38   19   49 1
    39   20   21 ar
    40   20   23 1
    41   21   22 ar
    42   21   50 1
    43   22   51 1
    44   24   25 2
    45   24   26 am
    46   26   27 1
    47   26   52 1
    48   27   28 1
    49   27   53 1
    50   27   54 1
    51   28   29 1
    52   28   55 1
    53   28   56 1
    54   29   30 1
    55   29   57 1
    56   29   58 1
    57   30   35 1
    58   30   31 1
    59   31   32 1
    60   31   59 1
    61   31   60 1
    62   32   33 1
    63   32   61 1
    64   32   62 1
    65   33   34 1
    66   34   35 1
    67   34   63 1
    68   34   64 1
    69   35   65 1
    70   35   66 1
@<TRIPOS>MOLECULE
ZINC16523988
   49    51     0     0     0
SMALL
USER_CHARGES

@<TRIPOS>ATOM
      1 C1          0.0406    1.3544   -0.0017 C.ar      1 <0>        -0.1360
      2 C2          1.2324    2.0551   -0.0059 C.ar      1 <0>        -0.0183
      3 C3          2.4348    1.3735   -0.0134 C.ar      1 <0>        -0.2026
      4 C4          2.4456   -0.0091   -0.0163 C.ar      1 <0>         0.0288
      5 C5          1.2542   -0.7095   -0.0112 C.ar      1 <0>        -0.6820
      6 C6          0.0515   -0.0277   -0.0051 C.ar      1 <0>         0.0101
      7 S1          1.2680   -2.4715   -0.0160 S.o2      1 <0>         2.6898
      8 O1          0.0227   -2.8859   -0.5606 O.2       1 <0>        -0.9442
      9 O2          2.5132   -2.8663   -0.5753 O.2       1 <0>        -0.9452
     10 N1          1.2812   -2.9653    1.5646 N.pl3     1 <0>        -0.9971
     11 C7          2.5494   -3.1747    2.2795 C.3       1 <0>         0.1252
     12 C8          2.4959   -2.4025    3.6020 C.3       1 <0>         0.0402
     13 N2          1.2914   -2.7946    4.3459 N.3       1 <0>        -0.5166
     14 C9          0.0709   -2.4328    3.6127 C.3       1 <0>         0.0339
     15 C10         0.0250   -3.2004    2.2925 C.3       1 <0>         0.1279
     16 C11         1.2900   -2.2076    5.6926 C.3       1 <0>         0.0375
     17 C12         0.1792   -2.8201    6.5063 C.2       1 <0>         0.5178
     18 O3         -0.5404   -3.6626    6.0130 O.2       1 <0>        -0.4950
     19 N3         -0.0144   -2.4316    7.7823 N.am      1 <0>        -0.6724
     20 C13        -1.1032   -2.9307    8.5088 C.ar      1 <0>         0.1476
     21 C14        -1.5386   -4.2327    8.3023 C.ar      1 <0>        -0.0801
     22 C15        -2.6123   -4.7231    9.0195 C.ar      1 <0>        -0.1273
     23 C16        -3.2550   -3.9172    9.9444 C.ar      1 <0>         0.1002
     24 C17        -2.8234   -2.6182   10.1522 C.ar      1 <0>        -0.1282
     25 C18        -1.7454   -2.1253    9.4411 C.ar      1 <0>        -0.0386
     26 Cl1        -1.1993   -0.4991    9.7072 Cl        1 <0>        -0.0499
     27 F1         -4.3050   -4.3993   10.6446 F         1 <0>        -0.1303
     28 C19         3.7339    2.1372   -0.0191 C.3       1 <0>         0.5103
     29 F2          3.4675    3.5106   -0.0153 F         1 <0>        -0.1740
     30 F3          4.4762    1.8031    1.1187 F         1 <0>        -0.1736
     31 F4          4.4641    1.8070   -1.1658 F         1 <0>        -0.1710
     32 H1         -0.8989    1.8870    0.0088 H         1 <0>         0.1484
     33 H2          1.2240    3.1351   -0.0036 H         1 <0>         0.1489
     34 H3          3.3851   -0.5417   -0.0230 H         1 <0>         0.1507
     35 H4         -0.8796   -0.5750   -0.0018 H         1 <0>         0.1508
     36 H5          2.6849   -4.2373    2.4812 H         1 <0>         0.0906
     37 H6          3.3767   -2.8058    1.6732 H         1 <0>         0.0964
     38 H7          3.3809   -2.6342    4.1946 H         1 <0>         0.0944
     39 H8          2.4647   -1.3323    3.3973 H         1 <0>         0.0432
     40 H9         -0.8028   -2.6866    4.2131 H         1 <0>         0.1072
     41 H10         0.0735   -1.3622    3.4079 H         1 <0>         0.0360
     42 H11        -0.8159   -2.8485    1.6949 H         1 <0>         0.0945
     43 H12        -0.0868   -4.2655    2.4955 H         1 <0>         0.0908
     44 H13         2.2465   -2.4057    6.1762 H         1 <0>         0.1139
     45 H14         1.1358   -1.1311    5.6195 H         1 <0>         0.0716
     46 H15         0.6001   -1.8065    8.1975 H         1 <0>         0.4146
     47 H16        -1.0382   -4.8617    7.5809 H         1 <0>         0.1615
     48 H17        -2.9512   -5.7358    8.8585 H         1 <0>         0.1481
     49 H18        -3.3264   -1.9912   10.8735 H         1 <0>         0.1513
@<TRIPOS>BOND
     1    1    6 ar
     2    1    2 ar
     3    1   32 1
     4    2    3 ar
     5    2   33 1
     6    3    4 ar
     7    3   28 1
     8    4    5 ar
     9    4   34 1
    10    5    6 ar
    11    5    7 1
    12    6   35 1
    13    7    8 2
    14    7    9 2
    15    7   10 1
    16   10   15 1
    17   10   11 1
    18   11   12 1
    19   11   36 1
    20   11   37 1
    21   12   13 1
    22   12   38 1
    23   12   39 1
    24   13   14 1
    25   13   16 1
    26   14   15 1
    27   14   40 1
    28   14   41 1
    29   15   42 1
    30   15   43 1
    31   16   17 1
    32   16   44 1
    33   16   45 1
    34   17   18 2
    35   17   19 am
    36   19   20 1
    37   19   46 1
    38   20   25 ar
    39   20   21 ar
    40   21   22 ar
    41   21   47 1
    42   22   23 ar
    43   22   48 1
    44   23   24 ar
    45   23   27 1
    46   24   25 ar
    47   24   49 1
    48   25   26 1
    49   28   29 1
    50   28   30 1
    51   28   31 1
@<TRIPOS>MOLECULE
ZINC64799398
   53    56     0     0     0
SMALL
USER_CHARGES

@<TRIPOS>ATOM
      1 C1         -1.3816   -7.3673    0.2706 C.3       1 <0>        -0.1213
      2 C2         -1.3392   -6.5548    1.5391 C.ar      1 <0>        -0.0960
      3 C3         -1.8964   -7.0569    2.7006 C.ar      1 <0>        -0.0612
      4 C4         -1.8576   -6.3118    3.8640 C.ar      1 <0>        -0.1305
      5 C5         -1.2610   -5.0645    3.8664 C.ar      1 <0>        -0.0238
      6 C6         -0.7032   -4.5630    2.7056 C.ar      1 <0>        -0.6547
      7 C7         -0.7383   -5.3102    1.5429 C.ar      1 <0>        -0.0293
      8 S1          0.0566   -2.9732    2.7086 S.o2      1 <0>         2.5856
      9 O1          0.1525   -2.5664    1.3505 O.2       1 <0>        -0.9316
     10 O2         -0.6222   -2.2005    3.6892 O.2       1 <0>        -0.9274
     11 C8          1.7068   -3.1855    3.2885 C.2       1 <0>        -0.7018
     12 C9          2.0867   -2.6432    4.4706 C.2       1 <0>        -0.0497
     13 S2          3.8002   -3.1415    4.5764 S.3       1 <0>         0.1939
     14 C10         3.8872   -4.0252    3.0471 C.2       1 <0>        -0.2188
     15 C11         2.6228   -3.9159    2.5360 C.2       1 <0>         0.1798
     16 N1          2.3504   -4.5339    1.2808 N.am      1 <0>        -0.6624
     17 C12         3.2616   -5.3740    0.7610 C.2       1 <0>         0.5255
     18 O3          3.1121   -5.7533   -0.3815 O.2       1 <0>        -0.5146
     19 C13         4.4567   -5.8655    1.5273 C.3       1 <0>        -0.1256
     20 C14         5.0301   -4.7399    2.4073 C.3       1 <0>         0.0491
     21 H1          5.6064   -4.0421    1.7998 H         1 <0>         0.1092
     22 C15         5.9139   -5.3397    3.4704 C.ar      1 <0>        -0.0859
     23 C16         5.3977   -6.2719    4.3513 C.ar      1 <0>        -0.1005
     24 C17         6.2043   -6.8251    5.3282 C.ar      1 <0>        -0.1689
     25 C18         7.5334   -6.4458    5.4259 C.ar      1 <0>         0.1089
     26 C19         8.0531   -5.5079    4.5390 C.ar      1 <0>         0.1072
     27 C20         7.2404   -4.9609    3.5590 C.ar      1 <0>        -0.1574
     28 O4          9.3570   -5.1324    4.6308 O.3       1 <0>        -0.3037
     29 C21         9.8216   -4.1652    3.6871 C.3       1 <0>         0.0242
     30 O5          8.3282   -6.9887    6.3866 O.3       1 <0>        -0.2977
     31 C22         7.7269   -7.9447    7.2621 C.3       1 <0>         0.1732
     32 C23         8.7282   -8.4217    8.2299 C.1       1 <0>        -0.2071
     33 C24         9.5268   -8.8021    9.0018 C.1       1 <0>        -0.1493
     34 H2         -0.4940   -7.9974    0.2129 H         1 <0>         0.0767
     35 H3         -2.2731   -7.9945    0.2705 H         1 <0>         0.0731
     36 H4         -1.4083   -6.6977   -0.5890 H         1 <0>         0.0734
     37 H5         -2.3624   -8.0312    2.6986 H         1 <0>         0.1343
     38 H6         -2.2935   -6.7036    4.7710 H         1 <0>         0.1372
     39 H7         -1.2313   -4.4819    4.7753 H         1 <0>         0.1422
     40 H8         -0.2990   -4.9199    0.6367 H         1 <0>         0.1361
     41 H9          1.5046   -2.0600    5.1687 H         1 <0>         0.2183
     42 H10         1.5219   -4.3516    0.8103 H         1 <0>         0.4136
     43 H11         4.1603   -6.7055    2.1555 H         1 <0>         0.1127
     44 H12         5.2230   -6.1949    0.8256 H         1 <0>         0.1206
     45 H13         4.3619   -6.5683    4.2762 H         1 <0>         0.1282
     46 H14         5.7984   -7.5526    6.0155 H         1 <0>         0.1394
     47 H15         7.6422   -4.2355    2.8671 H         1 <0>         0.1399
     48 H16        10.8753   -3.9553    3.8708 H         1 <0>         0.1028
     49 H17         9.6997   -4.5556    2.6767 H         1 <0>         0.0568
     50 H18         9.2442   -3.2469    3.7939 H         1 <0>         0.0565
     51 H19         6.8990   -7.4781    7.7960 H         1 <0>         0.0876
     52 H20         7.3546   -8.7873    6.6794 H         1 <0>         0.0875
     53 H21        10.2411   -9.1423    9.6921 H         1 <0>         0.2257
@<TRIPOS>BOND
     1    1    2 1
     2    1   34 1
     3    1   35 1
     4    1   36 1
     5    2    7 ar
     6    2    3 ar
     7    3    4 ar
     8    3   37 1
     9    4    5 ar
    10    4   38 1
    11    5    6 ar
    12    5   39 1
    13    6    7 ar
    14    6    8 1
    15    7   40 1
    16    8    9 2
    17    8   10 2
    18    8   11 1
    19   11   15 1
    20   11   12 2
    21   12   13 1
    22   12   41 1
    23   13   14 1
    24   14   20 1
    25   14   15 2
    26   15   16 1
    27   16   17 am
    28   16   42 1
    29   17   18 2
    30   17   19 1
    31   19   20 1
    32   19   43 1
    33   19   44 1
    34   20   21 1
    35   20   22 1
    36   22   27 ar
    37   22   23 ar
    38   23   24 ar
    39   23   45 1
    40   24   25 ar
    41   24   46 1
    42   25   26 ar
    43   25   30 1
    44   26   27 ar
    45   26   28 1
    46   27   47 1
    47   28   29 1
    48   29   48 1
    49   29   49 1
    50   29   50 1
    51   30   31 1
    52   31   32 1
    53   31   51 1
    54   31   52 1
    55   32   33 3
    56   33   53 1
@<TRIPOS>MOLECULE
ZINC08275977
   45    48     0     0     0
SMALL
USER_CHARGES
3-[[3-(4-chlorophenyl)-1,2,4-oxadiazol-5-yl]methyl]-5-ethyl-5-phenyl-imidazolidine-2,4-dione
@<TRIPOS>ATOM
      1 C1         -0.0216    2.0333   -4.2942 C.3       1 <0>        -0.1589
      2 C2         -0.8439    3.3009   -4.5348 C.3       1 <0>        -0.1169
      3 C3         -1.8806    3.4555   -3.4202 C.3       1 <0>         0.1722
      4 C4         -1.2072    3.5622   -2.0664 C.2       1 <0>         0.5377
      5 O1         -0.4349    4.4212   -1.6984 O.2       1 <0>        -0.4348
      6 N1         -1.6444    2.5027   -1.3575 N.am      1 <0>        -0.5786
      7 C5         -2.4972    1.7533   -2.0654 C.2       1 <0>         0.7035
      8 O2         -3.0280    0.7471   -1.6376 O.2       1 <0>        -0.5259
      9 N2         -2.7016    2.2379   -3.3035 N.am      1 <0>        -0.7110
     10 C6         -1.2405    2.2110    0.0202 C.3       1 <0>         0.2167
     11 C7         -0.0161    1.3325    0.0094 C.2       1 <0>         0.1552
     12 N3          1.2302    1.7351   -0.0004 N.2       1 <0>        -0.4446
     13 C8          1.9762    0.6073   -0.0135 C.2       1 <0>         0.2096
     14 N4          1.1471   -0.4039   -0.0111 N.2       1 <0>        -0.3627
     15 O3          0.0021   -0.0041    0.0020 O.3       1 <0>         0.1053
     16 C9          3.4582    0.5315   -0.0277 C.ar      1 <0>        -0.0219
     17 C10         4.2178    1.6996   -0.0339 C.ar      1 <0>        -0.0606
     18 C11         5.5956    1.6239   -0.0403 C.ar      1 <0>        -0.1119
     19 C12         6.2233    0.3899   -0.0535 C.ar      1 <0>        -0.0159
     20 C13         5.4728   -0.7735   -0.0535 C.ar      1 <0>        -0.1113
     21 C14         4.0945   -0.7081   -0.0405 C.ar      1 <0>        -0.0697
     22 Cl1         7.9569    0.3011   -0.0694 Cl        1 <0>        -0.0582
     23 C15        -2.7510    4.6598   -3.6713 C.ar      1 <0>        -0.1032
     24 C16        -2.2536    5.7360   -4.3821 C.ar      1 <0>        -0.0914
     25 C17        -3.0536    6.8387   -4.6165 C.ar      1 <0>        -0.1166
     26 C18        -4.3478    6.8694   -4.1315 C.ar      1 <0>        -0.1048
     27 C19        -4.8433    5.7955   -3.4158 C.ar      1 <0>        -0.1171
     28 C20        -4.0450    4.6907   -3.1859 C.ar      1 <0>        -0.0989
     29 H1          0.4867    2.1069   -3.3328 H         1 <0>         0.0480
     30 H2         -0.6827    1.1666   -4.2901 H         1 <0>         0.0617
     31 H3          0.7170    1.9231   -5.0882 H         1 <0>         0.0723
     32 H4         -1.3522    3.2272   -5.4962 H         1 <0>         0.0937
     33 H5         -0.1828    4.1675   -4.5388 H         1 <0>         0.0944
     34 H6         -3.2770    1.8592   -3.9865 H         1 <0>         0.4443
     35 H7         -2.0518    1.6971    0.5356 H         1 <0>         0.1409
     36 H8         -1.0142    3.1433    0.5376 H         1 <0>         0.1460
     37 H9          3.7291    2.6627   -0.0289 H         1 <0>         0.1464
     38 H10         6.1853    2.5287   -0.0396 H         1 <0>         0.1441
     39 H11         5.9668   -1.7338   -0.0634 H         1 <0>         0.1436
     40 H12         3.5099   -1.6162   -0.0398 H         1 <0>         0.1410
     41 H13        -1.2412    5.7138   -4.7574 H         1 <0>         0.1309
     42 H14        -2.6664    7.6779   -5.1753 H         1 <0>         0.1295
     43 H15        -4.9716    7.7325   -4.3114 H         1 <0>         0.1273
     44 H16        -5.8542    5.8197   -3.0366 H         1 <0>         0.1278
     45 H17        -4.4322    3.8517   -2.6267 H         1 <0>         0.1227
@<TRIPOS>BOND
     1    1    2 1
     2    1   29 1
     3    1   30 1
     4    1   31 1
     5    2    3 1
     6    2   32 1
     7    2   33 1
     8    3    9 1
     9    3    4 1
    10    3   23 1
    11    4    5 2
    12    4    6 am
    13    6    7 am
    14    6   10 1
    15    7    8 2
    16    7    9 am
    17    9   34 1
    18   10   11 1
    19   10   35 1
    20   10   36 1
    21   11   15 1
    22   11   12 2
    23   12   13 1
    24   13   14 2
    25   13   16 1
    26   14   15 1
    27   16   21 ar
    28   16   17 ar
    29   17   18 ar
    30   17   37 1
    31   18   19 ar
    32   18   38 1
    33   19   20 ar
    34   19   22 1
    35   20   21 ar
    36   20   39 1
    37   21   40 1
    38   23   28 ar
    39   23   24 ar
    40   24   25 ar
    41   24   41 1
    42   25   26 ar
    43   25   42 1
    44   26   27 ar
    45   26   43 1
    46   27   28 ar
    47   27   44 1
    48   28   45 1
@<TRIPOS>MOLECULE
ZINC01032639
   51    55     0     0     0
SMALL
USER_CHARGES
methyl (4R,7S)-4-(1,3-benzodioxol-5-yl)-7-(2-furyl)-2-methyl-5-oxo-4,6,7,8-tetrahydro-1H-quinoline-3-carboxylate
@<TRIPOS>ATOM
      1 C1          5.6200    7.2939    3.7515 C.3       1 <0>        -0.1319
      2 C2          4.9517    6.9371    2.4488 C.2       1 <0>         0.1919
      3 C3          5.3800    7.4960    1.3038 C.2       1 <0>        -0.2305
      4 C4          4.7334    7.1713   -0.0108 C.3       1 <0>         0.0915
      5 H1          5.5267    7.0279   -0.7592 H         1 <0>         0.0942
      6 C5          3.9230    5.9030    0.0833 C.2       1 <0>        -0.2792
      7 C6          3.5532    5.4084    1.2837 C.2       1 <0>         0.2279
      8 N1          3.9139    6.0476    2.4395 N.pl3     1 <0>        -0.6451
      9 C7          2.7394    4.1421    1.3853 C.3       1 <0>        -0.0925
     10 C8          1.8415    4.0083    0.1532 C.3       1 <0>         0.0088
     11 H2          1.1214    4.8388    0.1127 H         1 <0>         0.1140
     12 C9          2.7251    4.0043   -1.0988 C.3       1 <0>        -0.1644
     13 C10         3.5611    5.2554   -1.1110 C.2       1 <0>         0.4050
     14 O1          3.9274    5.7158   -2.1741 O.2       1 <0>        -0.4608
     15 C11         1.0656    2.7187    0.2296 C.2       1 <0>        -0.0163
     16 C12        -0.2748    2.6067    0.2442 C.2       1 <0>        -0.1972
     17 C13        -0.5697    1.2259    0.3168 C.2       1 <0>        -0.2140
     18 C14         0.6081    0.5771    0.3507 C.2       1 <0>        -0.0350
     19 O2          1.5952    1.4861    0.2943 O.3       1 <0>        -0.1735
     20 C15         3.8287    8.3080   -0.4114 C.ar      1 <0>        -0.0600
     21 C16         2.7516    8.6463    0.3865 C.ar      1 <0>        -0.0915
     22 C17         1.9215    9.6912    0.0256 C.ar      1 <0>        -0.0999
     23 C18         2.1617   10.3958   -1.1429 C.ar      1 <0>         0.0287
     24 C19         3.2437   10.0516   -1.9493 C.ar      1 <0>         0.0342
     25 C20         4.0744    9.0065   -1.5787 C.ar      1 <0>        -0.0823
     26 O3          3.2647   10.8848   -3.0303 O.3       1 <0>        -0.3102
     27 C21         2.4300   12.0017   -2.6710 C.3       1 <0>         0.2090
     28 O4          1.5048   11.4447   -1.7186 O.3       1 <0>        -0.3059
     29 C22         6.4605    8.4082    1.3388 C.2       1 <0>         0.5322
     30 O5          7.5584    8.0664    0.9409 O.2       1 <0>        -0.4977
     31 O6          6.2737    9.6576    1.8135 O.3       1 <0>        -0.3472
     32 C23         7.4087   10.5257    1.8195 C.3       1 <0>         0.0263
     33 H3          6.4266    8.0178    3.5636 H         1 <0>         0.0830
     34 H4          6.0410    6.3861    4.2083 H         1 <0>         0.0885
     35 H5          4.8801    7.7382    4.4335 H         1 <0>         0.0918
     36 H6          3.3596    5.8394    3.3666 H         1 <0>         0.4463
     37 H7          3.4148    3.2757    1.4410 H         1 <0>         0.1092
     38 H8          2.1150    4.1791    2.2902 H         1 <0>         0.0977
     39 H9          3.3797    3.1204   -1.0828 H         1 <0>         0.1077
     40 H10         2.0895    3.9736   -1.9961 H         1 <0>         0.1039
     41 H11        -0.9887    3.4161    0.2043 H         1 <0>         0.1493
     42 H12        -1.5521    0.7781    0.3426 H         1 <0>         0.1495
     43 H13         0.7380   -0.4935    0.4086 H         1 <0>         0.2040
     44 H14         2.5603    8.0954    1.2955 H         1 <0>         0.1290
     45 H15         1.0831    9.9559    0.6529 H         1 <0>         0.1338
     46 H16         4.9140    8.7371   -2.2024 H         1 <0>         0.1337
     47 H17         3.0506   12.7972   -2.2328 H         1 <0>         0.0844
     48 H18         1.9233   12.3847   -3.5691 H         1 <0>         0.1328
     49 H19         7.1191   11.5050    2.2282 H         1 <0>         0.1037
     50 H20         7.7788   10.6524    0.7914 H         1 <0>         0.0622
     51 H21         8.2018   10.0879    2.4435 H         1 <0>         0.0614
@<TRIPOS>BOND
     1    1    2 1
     2    1   33 1
     3    1   34 1
     4    1   35 1
     5    2    8 1
     6    2    3 2
     7    3    4 1
     8    3   29 1
     9    4    5 1
    10    4    6 1
    11    4   20 1
    12    6   13 1
    13    6    7 2
    14    7    8 1
    15    7    9 1
    16    8   36 1
    17    9   10 1
    18    9   37 1
    19    9   38 1
    20   10   11 1
    21   10   12 1
    22   10   15 1
    23   12   13 1
    24   12   39 1
    25   12   40 1
    26   13   14 2
    27   15   19 1
    28   15   16 2
    29   16   17 1
    30   16   41 1
    31   17   18 2
    32   17   42 1
    33   18   19 1
    34   18   43 1
    35   20   25 ar
    36   20   21 ar
    37   21   22 ar
    38   21   44 1
    39   22   23 ar
    40   22   45 1
    41   23   28 1
    42   23   24 ar
    43   24   25 ar
    44   24   26 1
    45   25   46 1
    46   26   27 1
    47   27   28 1
    48   27   47 1
    49   27   48 1
    50   29   30 2
    51   29   31 1
    52   31   32 1
    53   32   49 1
    54   32   50 1
    55   32   51 1
@<TRIPOS>MOLECULE
ZINC36396943
   47    50     0     0     0
SMALL
USER_CHARGES

@<TRIPOS>ATOM
      1 C1         -0.5368    1.4472    0.0883 C.3       1 <0>        -0.1373
      2 C2         -0.2460   -0.0306    0.0393 C.ar      1 <0>         0.0315
      3 C3         -0.3468   -0.7157   -1.1573 C.ar      1 <0>        -0.1348
      4 C4         -0.0801   -2.0711   -1.2022 C.ar      1 <0>         0.0268
      5 C5          0.2881   -2.7418   -0.0506 C.ar      1 <0>        -0.6850
      6 C6          0.3898   -2.0567    1.1455 C.ar      1 <0>         0.0452
      7 C7          0.1271   -0.7000    1.1896 C.ar      1 <0>        -0.0653
      8 N1          0.2410    0.0346    2.4695 N.pl3     1 <0>         0.0284
      9 O1          0.6744    1.1632    2.4822 O.2       1 <0>        -0.1394
     10 O2         -0.0993   -0.4939    3.5022 O.3       1 <0>        -0.1462
     11 S1          0.6271   -4.4699   -0.1077 S.o2      1 <0>         2.6959
     12 O3          0.4202   -4.9680    1.2070 O.2       1 <0>        -0.9403
     13 O4         -0.0690   -4.9833   -1.2351 O.2       1 <0>        -0.9409
     14 N2          2.2423   -4.6417   -0.4302 N.pl3     1 <0>        -0.9965
     15 C8          2.7429   -4.7228   -1.8132 C.3       1 <0>         0.1176
     16 C9          3.6668   -3.5257   -2.0518 C.3       1 <0>        -0.0982
     17 C10         4.6093   -3.3544   -0.8976 C.2       1 <0>        -0.0337
     18 C11         4.4214   -3.8695    0.2952 C.2       1 <0>        -0.1611
     19 C12         3.2344   -4.7132    0.6520 C.3       1 <0>         0.1548
     20 C13         5.8295   -2.5536   -1.1177 C.2       1 <0>        -0.1449
     21 C14         6.9369   -2.9350   -1.8041 C.2       1 <0>         0.0718
     22 N3          7.8562   -1.9260   -1.7928 N.pl3     1 <0>        -0.5882
     23 H1          8.7272   -1.9639   -2.2180 H         1 <0>         0.4205
     24 C15         7.3681   -0.8452   -1.0902 C.ar      1 <0>         0.1207
     25 C16         6.0802   -1.1824   -0.6409 C.ar      1 <0>        -0.1027
     26 C17         5.3370   -0.2665    0.1013 C.ar      1 <0>        -0.0400
     27 C18         5.8693    0.9705    0.3890 C.ar      1 <0>        -0.1742
     28 C19         7.1416    1.3075   -0.0570 C.ar      1 <0>         0.1227
     29 C20         7.8914    0.4072   -0.7857 C.ar      1 <0>        -0.1675
     30 F1          7.6518    2.5246    0.2320 F         1 <0>        -0.1358
     31 H2          0.3955    2.0043   -0.0038 H         1 <0>         0.1050
     32 H3         -1.2021    1.7140   -0.7328 H         1 <0>         0.0872
     33 H4         -1.0143    1.6923    1.0371 H         1 <0>         0.0807
     34 H5         -0.6344   -0.1919   -2.0569 H         1 <0>         0.1583
     35 H6         -0.1595   -2.6065   -2.1369 H         1 <0>         0.1594
     36 H7          0.6770   -2.5807    2.0451 H         1 <0>         0.1630
     37 H8          3.2986   -5.6504   -1.9503 H         1 <0>         0.0881
     38 H9          1.9060   -4.6872   -2.5108 H         1 <0>         0.0995
     39 H10         4.2402   -3.6891   -2.9642 H         1 <0>         0.0888
     40 H11         3.0660   -2.6232   -2.1636 H         1 <0>         0.0780
     41 H12         5.1584   -3.6725    1.0597 H         1 <0>         0.1228
     42 H13         2.7913   -4.3450    1.5773 H         1 <0>         0.0964
     43 H14         3.5535   -5.7469    0.7859 H         1 <0>         0.0933
     44 H15         7.0706   -3.8923   -2.2860 H         1 <0>         0.1762
     45 H16         4.3479   -0.5255    0.4489 H         1 <0>         0.1270
     46 H17         5.2952    1.6822    0.9637 H         1 <0>         0.1382
     47 H18         8.8786    0.6789   -1.1294 H         1 <0>         0.1342
@<TRIPOS>BOND
     1    1    2 1
     2    1   31 1
     3    1   32 1
     4    1   33 1
     5    2    7 ar
     6    2    3 ar
     7    3    4 ar
     8    3   34 1
     9    4    5 ar
    10    4   35 1
    11    5    6 ar
    12    5   11 1
    13    6    7 ar
    14    6   36 1
    15    7    8 1
    16    8    9 2
    17    8   10 1
    18   11   12 2
    19   11   13 2
    20   11   14 1
    21   14   19 1
    22   14   15 1
    23   15   16 1
    24   15   37 1
    25   15   38 1
    26   16   17 1
    27   16   39 1
    28   16   40 1
    29   17   18 2
    30   17   20 1
    31   18   19 1
    32   18   41 1
    33   19   42 1
    34   19   43 1
    35   20   25 1
    36   20   21 2
    37   21   22 1
    38   21   44 1
    39   22   23 1
    40   22   24 1
    41   24   29 ar
    42   24   25 ar
    43   25   26 ar
    44   26   27 ar
    45   26   45 1
    46   27   28 ar
    47   27   46 1
    48   28   29 ar
    49   28   30 1
    50   29   47 1
@<TRIPOS>MOLECULE
ZINC45716481
   53    57     0     0     0
SMALL
USER_CHARGES

@<TRIPOS>ATOM
      1 C1          6.6806   -6.0836    0.0770 C.ar      1 <0>        -0.1030
      2 C2          6.6710   -5.3508   -1.0958 C.ar      1 <0>        -0.1170
      3 C3          6.1443   -4.0742   -1.1099 C.ar      1 <0>        -0.0960
      4 C4          5.6235   -3.5266    0.0556 C.ar      1 <0>         0.1184
      5 C5          5.6343   -4.2655    1.2318 C.ar      1 <0>        -0.0677
      6 C6          6.1628   -5.5414    1.2390 C.ar      1 <0>        -0.1117
      7 N1          5.0895   -2.2332    0.0450 N.pl3     1 <0>        -0.2776
      8 C7          3.8727   -1.8593    0.5525 C.2       1 <0>         0.0464
      9 C8          3.7381   -0.5052    0.3380 C.2       1 <0>        -0.2087
     10 C9          4.9010   -0.0601   -0.3127 C.2       1 <0>         0.1458
     11 N2          5.7068   -1.0916   -0.4808 N.2       1 <0>        -0.2363
     12 C10         5.1779    1.3304   -0.7325 C.2       1 <0>         0.0447
     13 C11         6.2991    1.7636   -1.3668 C.2       1 <0>        -0.1572
     14 C12         6.1391    3.1488   -1.5740 C.2       1 <0>        -0.2144
     15 C13         4.9406    3.4884   -1.0611 C.2       1 <0>        -0.0194
     16 O1          4.3604    2.3862   -0.5580 O.3       1 <0>        -0.1665
     17 C14         2.8919   -2.7406    1.2051 C.2       1 <0>         0.5840
     18 O2          3.2576   -3.7774    1.7257 O.2       1 <0>        -0.5200
     19 N3          1.5883   -2.3992    1.2262 N.am      1 <0>        -0.5864
     20 C15         1.1053   -1.2436    0.4574 C.3       1 <0>         0.0638
     21 C16        -0.0265   -1.7085   -0.4673 C.3       1 <0>         0.1317
     22 N4         -0.9905   -2.4856    0.3243 N.pl3     1 <0>        -0.6707
     23 C17        -0.5075   -3.6412    1.0931 C.3       1 <0>         0.1367
     24 C18         0.6233   -3.1796    2.0134 C.3       1 <0>         0.0996
     25 C19        -2.3444   -2.1310    0.3462 C.ar      1 <0>         0.1426
     26 C20        -3.2199   -2.6716   -0.5842 C.ar      1 <0>        -0.1102
     27 C21        -4.5566   -2.3203   -0.5603 C.ar      1 <0>        -0.1218
     28 C22        -5.0241   -1.4307    0.3892 C.ar      1 <0>        -0.1060
     29 C23        -4.1571   -0.8879    1.3197 C.ar      1 <0>        -0.1414
     30 C24        -2.8173   -1.2388    1.3059 C.ar      1 <0>         0.0984
     31 O3         -1.9645   -0.7097    2.2238 O.3       1 <0>        -0.4892
     32 H1          7.0893   -7.0832    0.0844 H         1 <0>         0.1301
     33 H2          7.0761   -5.7772   -2.0016 H         1 <0>         0.1329
     34 H3          6.1377   -3.5022   -2.0259 H         1 <0>         0.1299
     35 H4          5.2304   -3.8425    2.1397 H         1 <0>         0.1426
     36 H5          6.1719   -6.1163    2.1533 H         1 <0>         0.1332
     37 H6          2.8917    0.1039    0.6190 H         1 <0>         0.1746
     38 H7          7.1486    1.1627   -1.6563 H         1 <0>         0.1554
     39 H8          6.8438    3.8121   -2.0531 H         1 <0>         0.1553
     40 H9          4.5154    4.4811   -1.0582 H         1 <0>         0.2109
     41 H10         0.7300   -0.4811    1.1401 H         1 <0>         0.0787
     42 H11         1.9205   -0.8345   -0.1393 H         1 <0>         0.1126
     43 H12        -0.5242   -0.8412   -0.9011 H         1 <0>         0.0829
     44 H13         0.3830   -2.3333   -1.2611 H         1 <0>         0.0575
     45 H14        -1.3228   -4.0503    1.6898 H         1 <0>         0.0835
     46 H15        -0.1322   -4.4037    0.4104 H         1 <0>         0.0559
     47 H16         1.1204   -4.0489    2.4439 H         1 <0>         0.0999
     48 H17         0.2130   -2.5582    2.8093 H         1 <0>         0.0815
     49 H18        -2.8573   -3.3664   -1.3273 H         1 <0>         0.1255
     50 H19        -5.2373   -2.7414   -1.2853 H         1 <0>         0.1260
     51 H20        -6.0692   -1.1588    0.4039 H         1 <0>         0.1271
     52 H21        -4.5256   -0.1933    2.0601 H         1 <0>         0.1287
     53 H22        -1.5502    0.1183    1.9445 H         1 <0>         0.3844
@<TRIPOS>BOND
     1    1    6 ar
     2    1    2 ar
     3    1   32 1
     4    2    3 ar
     5    2   33 1
     6    3    4 ar
     7    3   34 1
     8    4    5 ar
     9    4    7 1
    10    5    6 ar
    11    5   35 1
    12    6   36 1
    13    7   11 1
    14    7    8 1
    15    8    9 2
    16    8   17 1
    17    9   10 1
    18    9   37 1
    19   10   11 2
    20   10   12 1
    21   12   16 1
    22   12   13 2
    23   13   14 1
    24   13   38 1
    25   14   15 2
    26   14   39 1
    27   15   16 1
    28   15   40 1
    29   17   18 2
    30   17   19 am
    31   19   24 1
    32   19   20 1
    33   20   21 1
    34   20   41 1
    35   20   42 1
    36   21   22 1
    37   21   43 1
    38   21   44 1
    39   22   23 1
    40   22   25 1
    41   23   24 1
    42   23   45 1
    43   23   46 1
    44   24   47 1
    45   24   48 1
    46   25   30 ar
    47   25   26 ar
    48   26   27 ar
    49   26   49 1
    50   27   28 ar
    51   27   50 1
    52   28   29 ar
    53   28   51 1
    54   29   30 ar
    55   29   52 1
    56   30   31 1
    57   31   53 1
@<TRIPOS>MOLECULE
ZINC66315599
   48    51     0     0     0
SMALL
USER_CHARGES

@<TRIPOS>ATOM
      1 C1         -0.0167    1.3779    0.0096 C.ar      1 <0>        -0.0666
      2 C2          1.1711    2.0854    0.0021 C.ar      1 <0>        -0.1099
      3 C3          2.3773    1.4107   -0.0130 C.ar      1 <0>        -0.0552
      4 C4          2.3961    0.0283   -0.0201 C.ar      1 <0>        -0.0380
      5 C5          1.2086   -0.6790   -0.0117 C.ar      1 <0>        -0.0453
      6 C6          0.0021   -0.0041    0.0020 C.ar      1 <0>        -0.1018
      7 C7          1.2291   -2.1858   -0.0204 C.3       1 <0>         0.1450
      8 N1          1.4898   -2.6785    1.3344 N.am      1 <0>        -0.7196
      9 C8          1.5530   -4.0042    1.5688 C.2       1 <0>         0.5263
     10 O1          1.3941   -4.7893    0.6581 O.2       1 <0>        -0.5279
     11 C9          1.8212   -4.5111    2.9624 C.3       1 <0>        -0.1054
     12 C10         3.1744   -3.9838    3.4451 C.3       1 <0>        -0.1267
     13 C11         3.4279   -4.4725    4.8747 C.3       1 <0>         0.1287
     14 N2          3.3059   -5.9364    4.9027 N.pl3     1 <0>        -0.5602
     15 C12         2.0803   -6.5533    4.3773 C.3       1 <0>         0.1237
     16 C13         1.8419   -6.0413    2.9533 C.3       1 <0>        -0.1161
     17 C14         4.3233   -6.7171    5.4123 C.2       1 <0>         0.4235
     18 N3          5.4737   -6.3410    5.9230 N.2       1 <0>        -0.5874
     19 C15         6.3839   -7.2242    6.3890 C.ar      1 <0>         0.1309
     20 C16         7.6498   -6.9544    6.9581 C.ar      1 <0>        -0.0883
     21 C17         8.4583   -7.9759    7.3840 C.ar      1 <0>        -0.0984
     22 C18         8.0684   -9.3027    7.2739 C.ar      1 <0>        -0.1210
     23 C19         6.8363   -9.6029    6.7220 C.ar      1 <0>        -0.0533
     24 C20         6.0204   -8.5865    6.2929 C.ar      1 <0>        -0.1655
     25 S1          4.4077   -8.4968    5.5527 S.3       1 <0>        -0.0285
     26 N4          3.6878   -0.6943   -0.0373 N.pl3     1 <0>         0.0309
     27 O2          4.7264   -0.0756   -0.0451 O.2       1 <0>        -0.1581
     28 O3          3.7042   -1.9031   -0.0435 O.3       1 <0>        -0.1445
     29 H1         -0.9591    1.9051    0.0259 H         1 <0>         0.1472
     30 H2          1.1565    3.1653    0.0076 H         1 <0>         0.1505
     31 H3          3.3051    1.9634   -0.0196 H         1 <0>         0.1563
     32 H4         -0.9258   -0.5567    0.0082 H         1 <0>         0.1500
     33 H5          0.2648   -2.5603   -0.3639 H         1 <0>         0.0842
     34 H6          2.0142   -2.5347   -0.6912 H         1 <0>         0.1087
     35 H7          1.6168   -2.0506    2.0628 H         1 <0>         0.3971
     36 H8          1.0357   -4.1625    3.6330 H         1 <0>         0.1022
     37 H9          3.9633   -4.3523    2.7895 H         1 <0>         0.0819
     38 H10         3.1669   -2.8939    3.4292 H         1 <0>         0.0807
     39 H11         4.4313   -4.1834    5.1872 H         1 <0>         0.1019
     40 H12         2.6922   -4.0316    5.5474 H         1 <0>         0.0761
     41 H13         2.1946   -7.6372    4.3616 H         1 <0>         0.0883
     42 H14         1.2347   -6.2821    5.0094 H         1 <0>         0.0833
     43 H15         0.8860   -6.4159    2.5872 H         1 <0>         0.0927
     44 H16         2.6434   -6.3904    2.3022 H         1 <0>         0.0821
     45 H17         7.9836   -5.9321    7.0579 H         1 <0>         0.1291
     46 H18         9.4208   -7.7427    7.8147 H         1 <0>         0.1312
     47 H19         8.7205  -10.0931    7.6153 H         1 <0>         0.1355
     48 H20         6.5185  -10.6309    6.6290 H         1 <0>         0.1298
@<TRIPOS>BOND
     1    1    6 ar
     2    1    2 ar
     3    1   29 1
     4    2    3 ar
     5    2   30 1
     6    3    4 ar
     7    3   31 1
     8    4    5 ar
     9    4   26 1
    10    5    6 ar
    11    5    7 1
    12    6   32 1
    13    7    8 1
    14    7   33 1
    15    7   34 1
    16    8    9 am
    17    8   35 1
    18    9   10 2
    19    9   11 1
    20   11   16 1
    21   11   12 1
    22   11   36 1
    23   12   13 1
    24   12   37 1
    25   12   38 1
    26   13   14 1
    27   13   39 1
    28   13   40 1
    29   14   15 1
    30   14   17 1
    31   15   16 1
    32   15   41 1
    33   15   42 1
    34   16   43 1
    35   16   44 1
    36   17   25 1
    37   17   18 2
    38   18   19 1
    39   19   24 ar
    40   19   20 ar
    41   20   21 ar
    42   20   45 1
    43   21   22 ar
    44   21   46 1
    45   22   23 ar
    46   22   47 1
    47   23   24 ar
    48   23   48 1
    49   24   25 1
    50   26   27 2
    51   26   28 1
@<TRIPOS>MOLECULE
ZINC11933635
   61    65     0     0     0
SMALL
USER_CHARGES
N-[2-(6-oxo-3-phenyl-pyridazin-1-yl)ethyl]-2-pyrrolidin-1-yl-5,6,7,8-tetrahydroquinazoline-4-carboxamide
@<TRIPOS>ATOM
      1 C1          3.2713  -10.6930    0.9033 C.ar      1 <0>        -0.1063
      2 C2          2.4417   -9.5906    0.8050 C.ar      1 <0>        -0.1205
      3 C3          2.9685   -8.3525    0.4976 C.ar      1 <0>        -0.0849
      4 C4          4.3391   -8.2143    0.2868 C.ar      1 <0>        -0.0364
      5 C5          5.1694   -9.3294    0.3820 C.ar      1 <0>        -0.0992
      6 C6          4.6325  -10.5615    0.6955 C.ar      1 <0>        -0.1182
      7 C7          4.9112   -6.8860   -0.0438 C.2       1 <0>         0.1094
      8 C8          6.3031   -6.7517   -0.2572 C.2       1 <0>        -0.0618
      9 C9          6.7934   -5.5156   -0.5592 C.2       1 <0>        -0.1789
     10 C10         5.8772   -4.4440   -0.6456 C.2       1 <0>         0.4765
     11 O1          6.2691   -3.3206   -0.9179 O.2       1 <0>        -0.5230
     12 N1          4.5693   -4.6699   -0.4208 N.am      1 <0>        -0.3397
     13 N2          4.1242   -5.8403   -0.1375 N.2       1 <0>        -0.2169
     14 C11         3.6276   -3.5510   -0.5077 C.3       1 <0>         0.1033
     15 C12         3.1107   -3.4297   -1.9426 C.3       1 <0>         0.1075
     16 N3          2.1690   -2.3108   -2.0295 N.am      1 <0>        -0.7053
     17 C13         1.5828   -2.0131   -3.2060 C.2       1 <0>         0.5772
     18 O2          1.8354   -2.6726   -4.1945 O.2       1 <0>        -0.5098
     19 C14         0.6284   -0.8793   -3.2941 C.ar      1 <0>         0.1462
     20 C15         0.0150   -0.5626   -4.5109 C.ar      1 <0>        -0.1429
     21 C16        -0.8691    0.4962   -4.5468 C.ar      1 <0>         0.2073
     22 N4         -1.1001    1.1792   -3.4327 N.ar      1 <0>        -0.5059
     23 C17        -0.5038    0.8586   -2.2952 C.ar      1 <0>         0.4815
     24 N5          0.3499   -0.1492   -2.2190 N.ar      1 <0>        -0.5285
     25 N6         -0.7759    1.6001   -1.1582 N.pl3     1 <0>        -0.4391
     26 C18        -0.0127    1.0858    0.0080 C.3       1 <0>         0.0444
     27 C19        -0.7824    1.6071    1.2405 C.3       1 <0>        -0.1278
     28 C20        -2.2232    1.8500    0.7362 C.3       1 <0>        -0.1255
     29 C21        -2.1986    1.4551   -0.7560 C.3       1 <0>         0.0512
     30 C22        -1.5915    0.9047   -5.8019 C.3       1 <0>        -0.0718
     31 C23        -0.8990    0.3189   -7.0315 C.3       1 <0>        -0.1219
     32 C24        -0.7051   -1.1858   -6.8116 C.3       1 <0>        -0.1256
     33 C25         0.3503   -1.3846   -5.7243 C.3       1 <0>        -0.0763
     34 H1          2.8547  -11.6601    1.1437 H         1 <0>         0.1259
     35 H2          1.3796   -9.6989    0.9686 H         1 <0>         0.1274
     36 H3          2.3198   -7.4924    0.4211 H         1 <0>         0.1323
     37 H4          6.2317   -9.2287    0.2152 H         1 <0>         0.1285
     38 H5          5.2757  -11.4256    0.7739 H         1 <0>         0.1290
     39 H6          6.9601   -7.6057   -0.1833 H         1 <0>         0.1566
     40 H7          7.8484   -5.3617   -0.7310 H         1 <0>         0.1687
     41 H8          4.1330   -2.6278   -0.2243 H         1 <0>         0.1154
     42 H9          2.7896   -3.7282    0.1666 H         1 <0>         0.1102
     43 H10         2.6052   -4.3529   -2.2260 H         1 <0>         0.0822
     44 H11         3.9486   -3.2525   -2.6169 H         1 <0>         0.0809
     45 H12         1.9673   -1.7842   -1.2402 H         1 <0>         0.4129
     46 H13         0.0021   -0.0041    0.0020 H         1 <0>         0.0710
     47 H14         1.0039    1.4790    0.0004 H         1 <0>         0.0891
     48 H15        -0.7781    0.8594    2.0337 H         1 <0>         0.0768
     49 H16        -0.3425    2.5391    1.5953 H         1 <0>         0.0773
     50 H17        -2.4898    2.9012    0.8453 H         1 <0>         0.0794
     51 H18        -2.9265    1.2215    1.2826 H         1 <0>         0.0768
     52 H19        -2.8286    2.1281   -1.3377 H         1 <0>         0.0968
     53 H20        -2.5266    0.4235   -0.8836 H         1 <0>         0.0511
     54 H21        -2.6189    0.5428   -5.7603 H         1 <0>         0.0948
     55 H22        -1.5984    1.9921   -5.8759 H         1 <0>         0.0950
     56 H23         0.0711    0.7969   -7.1677 H         1 <0>         0.0696
     57 H24        -1.5154    0.4833   -7.9153 H         1 <0>         0.0797
     58 H25        -0.3686   -1.6510   -7.7381 H         1 <0>         0.0762
     59 H26        -1.6458   -1.6370   -6.4958 H         1 <0>         0.0664
     60 H27         1.3244   -1.0808   -6.1076 H         1 <0>         0.0855
     61 H28         0.3845   -2.4384   -5.4475 H         1 <0>         0.1061
@<TRIPOS>BOND
     1    1    6 ar
     2    1    2 ar
     3    1   34 1
     4    2    3 ar
     5    2   35 1
     6    3    4 ar
     7    3   36 1
     8    4    5 ar
     9    4    7 1
    10    5    6 ar
    11    5   37 1
    12    6   38 1
    13    7   13 2
    14    7    8 1
    15    8    9 2
    16    8   39 1
    17    9   10 1
    18    9   40 1
    19   10   11 2
    20   10   12 am
    21   12   13 1
    22   12   14 1
    23   14   15 1
    24   14   41 1
    25   14   42 1
    26   15   16 1
    27   15   43 1
    28   15   44 1
    29   16   17 am
    30   16   45 1
    31   17   18 2
    32   17   19 1
    33   19   24 ar
    34   19   20 ar
    35   20   33 1
    36   20   21 ar
    37   21   22 ar
    38   21   30 1
    39   22   23 ar
    40   23   24 ar
    41   23   25 1
    42   25   29 1
    43   25   26 1
    44   26   27 1
    45   26   46 1
    46   26   47 1
    47   27   28 1
    48   27   48 1
    49   27   49 1
    50   28   29 1
    51   28   50 1
    52   28   51 1
    53   29   52 1
    54   29   53 1
    55   30   31 1
    56   30   54 1
    57   30   55 1
    58   31   32 1
    59   31   56 1
    60   31   57 1
    61   32   33 1
    62   32   58 1
    63   32   59 1
    64   33   60 1
    65   33   61 1
@<TRIPOS>MOLECULE
ZINC13496436
   60    65     0     0     0
SMALL
USER_CHARGES
4-[(R)-[4-(1,3-benzothiazol-2-yl)piperazin-1-yl]-(1-cyclopentyltetrazol-5-yl)methyl]phenol
@<TRIPOS>ATOM
      1 C1         -8.2631    0.2610   -5.9296 C.ar      1 <0>        -0.1064
      2 C2         -7.6681    0.7936   -7.0640 C.ar      1 <0>        -0.1025
      3 C3         -6.3151    1.0801   -7.0479 C.ar      1 <0>        -0.0628
      4 C4         -5.5840    0.8343   -5.9129 C.ar      1 <0>        -0.1443
      5 C5         -6.1558    0.2928   -4.7394 C.ar      1 <0>         0.0997
      6 C6         -7.5405    0.0118   -4.7919 C.ar      1 <0>        -0.0698
      7 N1         -5.3061    0.1089   -3.7050 N.2       1 <0>        -0.5271
      8 C7         -4.0299    0.4117   -3.7784 C.2       1 <0>         0.3445
      9 S1         -3.8832    1.0434   -5.4438 S.3       1 <0>        -0.0405
     10 N2         -3.0524    0.2808   -2.8131 N.pl3     1 <0>        -0.4250
     11 C8         -1.7507    0.7416   -3.3159 C.3       1 <0>         0.0507
     12 C9         -0.6814    0.5066   -2.2463 C.3       1 <0>         0.0586
     13 N3         -1.0532    1.2251   -1.0195 N.3       1 <0>        -0.5206
     14 C10        -2.3550    0.7644   -0.5167 C.3       1 <0>         0.0577
     15 C11        -3.4242    0.9994   -1.5863 C.3       1 <0>         0.0617
     16 C12        -0.0127    1.0858    0.0080 C.3       1 <0>         0.2259
     17 H1          0.0518    0.0238    0.2871 H         1 <0>         0.0730
     18 C13        -0.3794    1.9173    1.2102 C.ar      1 <0>        -0.1431
     19 C14        -0.8087    3.2209    1.0427 C.ar      1 <0>        -0.0275
     20 C15        -1.1508    3.9834    2.1427 C.ar      1 <0>        -0.1663
     21 C16        -1.0520    3.4439    3.4170 C.ar      1 <0>         0.1710
     22 C17        -0.6156    2.1375    3.5827 C.ar      1 <0>        -0.2183
     23 C18        -0.2805    1.3772    2.4791 C.ar      1 <0>        -0.0653
     24 O1         -1.3818    4.1941    4.5012 O.3       1 <0>        -0.5081
     25 C19         1.3068    1.5581   -0.5460 C.2       1 <0>         0.1846
     26 N4          1.5141    2.6365   -1.2617 N.2       1 <0>        -0.2732
     27 N5          2.7704    2.6925   -1.5421 N.2       1 <0>        -0.0780
     28 N6          3.3698    1.6779   -1.0238 N.2       1 <0>        -0.0893
     29 N7          2.5022    0.9577   -0.3969 N.pl3     1 <0>        -0.3010
     30 C20         2.7675   -0.2825    0.3363 C.3       1 <0>         0.1351
     31 C21         3.8080   -0.0278    1.4465 C.3       1 <0>        -0.1336
     32 C22         4.6680   -1.3168    1.4629 C.3       1 <0>        -0.1210
     33 C23         4.7702   -1.6797   -0.0394 C.3       1 <0>        -0.1181
     34 C24         3.3787   -1.3326   -0.6079 C.3       1 <0>        -0.1280
     35 H2         -9.3196    0.0372   -5.9434 H         1 <0>         0.1346
     36 H3         -8.2553    0.9828   -7.9504 H         1 <0>         0.1388
     37 H4         -5.8371    1.4948   -7.9230 H         1 <0>         0.1330
     38 H5         -8.0344   -0.4034   -3.9258 H         1 <0>         0.1325
     39 H6         -1.4899    0.1812   -4.2258 H         1 <0>         0.0988
     40 H7         -1.8071    1.8150   -3.5498 H         1 <0>         0.0772
     41 H8         -0.6062   -0.5700   -2.0334 H         1 <0>         0.0524
     42 H9          0.2885    0.8771   -2.6098 H         1 <0>         0.0902
     43 H10        -2.2987   -0.3090   -0.2828 H         1 <0>         0.0546
     44 H11        -2.6158    1.3248    0.3932 H         1 <0>         0.1022
     45 H12        -3.4997    2.0757   -1.8004 H         1 <0>         0.0686
     46 H13        -4.3944    0.6287   -1.2240 H         1 <0>         0.1061
     47 H14        -0.8805    3.6421    0.0508 H         1 <0>         0.1433
     48 H15        -1.4906    5.0001    2.0111 H         1 <0>         0.1317
     49 H16        -0.5375    1.7154    4.5738 H         1 <0>         0.1290
     50 H17         0.0593    0.3601    2.6076 H         1 <0>         0.1213
     51 H18        -1.3031    3.7654    5.5112 H         1 <0>         0.4354
     52 H19         1.7915   -0.5956    0.7356 H         1 <0>         0.1118
     53 H20         4.4028    0.8625    1.1943 H         1 <0>         0.0873
     54 H21         3.2907    0.1359    2.4034 H         1 <0>         0.0806
     55 H22         5.6470   -1.0987    1.9146 H         1 <0>         0.0794
     56 H23         4.1564   -2.0915    2.0530 H         1 <0>         0.0752
     57 H24         5.5677   -1.0837   -0.5071 H         1 <0>         0.0771
     58 H25         5.0034   -2.7497   -0.1431 H         1 <0>         0.0779
     59 H26         2.7326   -2.2225   -0.6340 H         1 <0>         0.0868
     60 H27         3.4627   -0.9107   -1.6203 H         1 <0>         0.0814
@<TRIPOS>BOND
     1    1    6 ar
     2    1    2 ar
     3    1   35 1
     4    2    3 ar
     5    2   36 1
     6    3    4 ar
     7    3   37 1
     8    4    9 1
     9    4    5 ar
    10    5    6 ar
    11    5    7 1
    12    6   38 1
    13    7    8 2
    14    8    9 1
    15    8   10 1
    16   10   15 1
    17   10   11 1
    18   11   12 1
    19   11   39 1
    20   11   40 1
    21   12   13 1
    22   12   41 1
    23   12   42 1
    24   13   14 1
    25   13   16 1
    26   14   15 1
    27   14   43 1
    28   14   44 1
    29   15   45 1
    30   15   46 1
    31   16   17 1
    32   16   18 1
    33   16   25 1
    34   18   23 ar
    35   18   19 ar
    36   19   20 ar
    37   19   47 1
    38   20   21 ar
    39   20   48 1
    40   21   22 ar
    41   21   24 1
    42   22   23 ar
    43   22   49 1
    44   23   50 1
    45   24   51 1
    46   25   29 1
    47   25   26 2
    48   26   27 1
    49   27   28 2
    50   28   29 1
    51   29   30 1
    52   30   34 1
    53   30   31 1
    54   30   52 1
    55   31   32 1
    56   31   53 1
    57   31   54 1
    58   32   33 1
    59   32   55 1
    60   32   56 1
    61   33   34 1
    62   33   57 1
    63   33   58 1
    64   34   59 1
    65   34   60 1
@<TRIPOS>MOLECULE
ZINC33324797
   58    62     0     0     0
SMALL
USER_CHARGES
N-(4-ethoxyphenyl)-2-[oxo(p-tolyl)BLAHyl]acetamide
@<TRIPOS>ATOM
      1 C1          5.7274   -2.2731  -10.6356 C.3       1 <0>        -0.1559
      2 C2          5.6633   -2.4282   -9.1148 C.3       1 <0>         0.0524
      3 O1          5.5795   -1.1374   -8.5074 O.3       1 <0>        -0.3153
      4 C3          5.5146   -1.0971   -7.1499 C.ar      1 <0>         0.1218
      5 C4          5.4316    0.1234   -6.4958 C.ar      1 <0>        -0.1344
      6 C5          5.3656    0.1652   -5.1171 C.ar      1 <0>        -0.0782
      7 C6          5.3820   -1.0149   -4.3856 C.ar      1 <0>         0.1058
      8 C7          5.4705   -2.2359   -5.0407 C.ar      1 <0>        -0.0995
      9 C8          5.5310   -2.2764   -6.4196 C.ar      1 <0>        -0.1919
     10 N1          5.3151   -0.9733   -2.9867 N.am      1 <0>        -0.6755
     11 C9          4.5740   -0.0281   -2.3753 C.2       1 <0>         0.4980
     12 O2          4.0329    0.8368   -3.0313 O.2       1 <0>        -0.5068
     13 C10         4.4175   -0.0458   -0.8765 C.3       1 <0>         0.0864
     14 N2          3.5726    1.0763   -0.4604 N.pl3     1 <0>        -0.4524
     15 C11         2.2184    0.9108   -0.3765 C.2       1 <0>         0.1942
     16 C12         1.4380    1.9456    0.0061 C.2       1 <0>        -0.2650
     17 C13         2.0333    3.1901    0.3141 C.2       1 <0>         0.5760
     18 O3          1.3389    4.1301    0.6579 O.2       1 <0>        -0.4785
     19 N3          3.3664    3.3348    0.2266 N.am      1 <0>        -0.3714
     20 C14         4.1479    2.2878   -0.1579 C.2       1 <0>         0.5190
     21 N4          5.3976    2.7001   -0.1563 N.2       1 <0>        -0.5344
     22 C15         5.4498    3.9855    0.2172 C.2       1 <0>         0.3139
     23 N5          4.2301    4.4138    0.4608 N.2       1 <0>        -0.2739
     24 C16         6.6864    4.7969    0.3371 C.ar      1 <0>        -0.0323
     25 C17         7.9266    4.2271    0.0559 C.ar      1 <0>        -0.0643
     26 C18         9.0730    4.9879    0.1639 C.ar      1 <0>        -0.1279
     27 C19         8.9936    6.3105    0.5611 C.ar      1 <0>        -0.0620
     28 C20         7.7656    6.8797    0.8466 C.ar      1 <0>        -0.1247
     29 C21         6.6122    6.1297    0.7368 C.ar      1 <0>        -0.0713
     30 C22        10.2495    7.1343    0.6837 C.3       1 <0>        -0.1223
     31 C23        -0.0162    1.5268    0.0262 C.3       1 <0>        -0.0486
     32 C24         0.0117   -0.0171    0.0233 C.3       1 <0>        -0.1108
     33 C25         1.3678   -0.3107   -0.6542 C.3       1 <0>        -0.0724
     34 H1          5.7919   -3.2667  -11.1031 H         1 <0>         0.0803
     35 H2          6.6145   -1.6820  -10.9068 H         1 <0>         0.0677
     36 H3          4.8218   -1.7591  -10.9902 H         1 <0>         0.0676
     37 H4          4.7762   -3.0193   -8.8436 H         1 <0>         0.0628
     38 H5          6.5688   -2.9422   -8.7601 H         1 <0>         0.0632
     39 H6          5.4188    1.0412   -7.0649 H         1 <0>         0.1340
     40 H7          5.3010    1.1154   -4.6079 H         1 <0>         0.1429
     41 H8          5.4878   -3.1539   -4.4720 H         1 <0>         0.1299
     42 H9          5.5953   -3.2263   -6.9295 H         1 <0>         0.1325
     43 H10         5.8674   -1.7121   -2.3874 H         1 <0>         0.4370
     44 H11         3.9487   -0.9919   -0.5680 H         1 <0>         0.1368
     45 H12         5.4065    0.0447   -0.4035 H         1 <0>         0.1407
     46 H13         7.9901    3.1933   -0.2500 H         1 <0>         0.1354
     47 H14        10.0344    4.5486   -0.0578 H         1 <0>         0.1301
     48 H15         7.7093    7.9128    1.1563 H         1 <0>         0.1309
     49 H16         5.6541    6.5748    0.9606 H         1 <0>         0.1339
     50 H17         9.9898    8.1526    1.0085 H         1 <0>         0.0685
     51 H18        10.7557    7.1785   -0.2919 H         1 <0>         0.0740
     52 H19        10.9197    6.6730    1.4240 H         1 <0>         0.0740
     53 H20        -0.4991    1.9222    0.9320 H         1 <0>         0.0865
     54 H21        -0.5248    1.9251   -0.8641 H         1 <0>         0.0865
     55 H22        -0.0428   -0.3867    1.0579 H         1 <0>         0.0871
     56 H23        -0.8476   -0.3983   -0.5480 H         1 <0>         0.0962
     57 H24         1.2584   -0.4419   -1.7408 H         1 <0>         0.1087
     58 H25         1.8519   -1.2000   -0.2244 H         1 <0>         0.0951
@<TRIPOS>BOND
     1    1    2 1
     2    1   34 1
     3    1   35 1
     4    1   36 1
     5    2    3 1
     6    2   37 1
     7    2   38 1
     8    3    4 1
     9    4    9 ar
    10    4    5 ar
    11    5    6 ar
    12    5   39 1
    13    6    7 ar
    14    6   40 1
    15    7    8 ar
    16    7   10 1
    17    8    9 ar
    18    8   41 1
    19    9   42 1
    20   10   11 am
    21   10   43 1
    22   11   12 2
    23   11   13 1
    24   13   14 1
    25   13   44 1
    26   13   45 1
    27   14   20 1
    28   14   15 1
    29   15   33 1
    30   15   16 2
    31   16   17 1
    32   16   31 1
    33   17   18 2
    34   17   19 am
    35   19   23 1
    36   19   20 1
    37   20   21 2
    38   21   22 1
    39   22   23 2
    40   22   24 1
    41   24   29 ar
    42   24   25 ar
    43   25   26 ar
    44   25   46 1
    45   26   27 ar
    46   26   47 1
    47   27   28 ar
    48   27   30 1
    49   28   29 ar
    50   28   48 1
    51   29   49 1
    52   30   50 1
    53   30   51 1
    54   30   52 1
    55   31   32 1
    56   31   53 1
    57   31   54 1
    58   32   33 1
    59   32   55 1
    60   32   56 1
    61   33   57 1
    62   33   58 1
@<TRIPOS>MOLECULE
ZINC40923285
   59    63     0     0     0
SMALL
USER_CHARGES

@<TRIPOS>ATOM
      1 C1         -0.2917    0.9370    0.9435 C.3       1 <0>         0.0256
      2 O1         -0.4056   -0.4869    0.9831 O.3       1 <0>        -0.3163
      3 C2         -1.6495   -1.0110    0.8249 C.ar      1 <0>         0.1372
      4 C3         -2.7372   -0.1722    0.6297 C.ar      1 <0>        -0.2102
      5 C4         -4.0006   -0.7073    0.4687 C.ar      1 <0>        -0.0585
      6 C5         -4.1816   -2.0777    0.5023 C.ar      1 <0>        -0.1504
      7 C6         -3.0992   -2.9158    0.6971 C.ar      1 <0>        -0.0595
      8 C7         -1.8330   -2.3858    0.8525 C.ar      1 <0>        -0.1535
      9 C8         -5.5609   -2.6588    0.3268 C.3       1 <0>         0.1655
     10 N1         -5.8090   -2.9068   -1.0956 N.am      1 <0>        -0.7274
     11 C9         -6.9864   -3.4284   -1.4933 C.2       1 <0>         0.5165
     12 O2         -7.8405   -3.6924   -0.6737 O.2       1 <0>        -0.5330
     13 C10        -7.2416   -3.6836   -2.9565 C.3       1 <0>        -0.1059
     14 C11        -6.1996   -4.6685   -3.4916 C.3       1 <0>        -0.1273
     15 C12        -6.4409   -4.8987   -4.9868 C.3       1 <0>         0.1222
     16 N2         -7.8326   -5.3282   -5.1805 N.pl3     1 <0>        -0.5978
     17 C13        -8.9114   -4.4994   -4.6255 C.3       1 <0>         0.1212
     18 C14        -8.6424   -4.2737   -3.1344 C.3       1 <0>        -0.1151
     19 C15        -8.1231   -6.4963   -5.8762 C.ar      1 <0>         0.3456
     20 C16        -7.1172   -7.1571   -6.5836 C.ar      1 <0>        -0.1775
     21 C17        -7.4528   -8.3156   -7.2602 C.ar      1 <0>        -0.0654
     22 C18        -8.7803   -8.7533   -7.1935 C.ar      1 <0>         0.0565
     23 N3         -9.6688   -8.0591   -6.4955 N.ar      1 <0>        -0.1881
     24 N4         -9.3538   -6.9869   -5.8642 N.ar      1 <0>        -0.2971
     25 C19        -9.1923   -9.9894   -7.9015 C.ar      1 <0>        -0.0240
     26 C20        -8.2565  -10.7213   -8.6307 C.ar      1 <0>        -0.0938
     27 C21        -8.6406  -11.8714   -9.2887 C.ar      1 <0>        -0.0994
     28 C22        -9.9574  -12.3028   -9.2283 C.ar      1 <0>         0.0403
     29 C23       -10.8975  -11.5744   -8.5010 C.ar      1 <0>         0.0323
     30 C24       -10.5148  -10.4246   -7.8345 C.ar      1 <0>        -0.0672
     31 O3        -12.1060  -12.2021   -8.5989 O.3       1 <0>        -0.3059
     32 C25       -11.9866  -13.0923   -9.7242 C.3       1 <0>         0.2125
     33 O4        -10.5782  -13.3859   -9.7805 O.3       1 <0>        -0.3075
     34 H1          0.7512    1.2220    1.0823 H         1 <0>         0.1027
     35 H2         -0.6432    1.3030   -0.0211 H         1 <0>         0.0570
     36 H3         -0.8962    1.3721    1.7394 H         1 <0>         0.0573
     37 H4         -2.5964    0.8983    0.6041 H         1 <0>         0.1308
     38 H5         -4.8476   -0.0548    0.3168 H         1 <0>         0.1272
     39 H6         -3.2433   -3.9858    0.7233 H         1 <0>         0.1316
     40 H7         -0.9872   -3.0411    1.0001 H         1 <0>         0.1337
     41 H8         -5.6327   -3.5969    0.8772 H         1 <0>         0.0762
     42 H9         -6.3022   -1.9564    0.7078 H         1 <0>         0.0757
     43 H10        -5.1259   -2.6957   -1.7511 H         1 <0>         0.4009
     44 H11        -7.1702   -2.7453   -3.5066 H         1 <0>         0.1008
     45 H12        -5.2009   -4.2577   -3.3433 H         1 <0>         0.0825
     46 H13        -6.2868   -5.6154   -2.9589 H         1 <0>         0.0760
     47 H14        -6.2653   -3.9715   -5.5323 H         1 <0>         0.0760
     48 H15        -5.7655   -5.6729   -5.3509 H         1 <0>         0.0885
     49 H16        -8.9373   -3.5397   -5.1415 H         1 <0>         0.0679
     50 H17        -9.8661   -5.0102   -4.7513 H         1 <0>         0.1032
     51 H18        -8.7066   -5.2244   -2.6051 H         1 <0>         0.0766
     52 H19        -9.3824   -3.5819   -2.7318 H         1 <0>         0.0857
     53 H20        -6.1073   -6.7748   -6.6022 H         1 <0>         0.1502
     54 H21        -6.7131   -8.8655   -7.8232 H         1 <0>         0.1525
     55 H22        -7.2304  -10.3881   -8.6802 H         1 <0>         0.1418
     56 H23        -7.9139  -12.4373   -9.8528 H         1 <0>         0.1411
     57 H24       -11.2408   -9.8621   -7.2663 H         1 <0>         0.1487
     58 H25       -12.5611  -14.0029   -9.5548 H         1 <0>         0.1339
     59 H26       -12.3116  -12.5980  -10.6397 H         1 <0>         0.0866
@<TRIPOS>BOND
     1    1    2 1
     2    1   34 1
     3    1   35 1
     4    1   36 1
     5    2    3 1
     6    3    8 ar
     7    3    4 ar
     8    4    5 ar
     9    4   37 1
    10    5    6 ar
    11    5   38 1
    12    6    7 ar
    13    6    9 1
    14    7    8 ar
    15    7   39 1
    16    8   40 1
    17    9   10 1
    18    9   41 1
    19    9   42 1
    20   10   11 am
    21   10   43 1
    22   11   12 2
    23   11   13 1
    24   13   18 1
    25   13   14 1
    26   13   44 1
    27   14   15 1
    28   14   45 1
    29   14   46 1
    30   15   16 1
    31   15   47 1
    32   15   48 1
    33   16   17 1
    34   16   19 1
    35   17   18 1
    36   17   49 1
    37   17   50 1
    38   18   51 1
    39   18   52 1
    40   19   24 ar
    41   19   20 ar
    42   20   21 ar
    43   20   53 1
    44   21   22 ar
    45   21   54 1
    46   22   23 ar
    47   22   25 1
    48   23   24 ar
    49   25   30 ar
    50   25   26 ar
    51   26   27 ar
    52   26   55 1
    53   27   28 ar
    54   27   56 1
    55   28   33 1
    56   28   29 ar
    57   29   30 ar
    58   29   31 1
    59   30   57 1
    60   31   32 1
    61   32   33 1
    62   32   58 1
    63   32   59 1
@<TRIPOS>MOLECULE
ZINC64969990
   52    56     0     0     0
SMALL
USER_CHARGES

@<TRIPOS>ATOM
      1 C1         -0.0164    1.3602    0.0095 C.ar      1 <0>        -0.1216
      2 C2          1.1680    2.0916    0.0021 C.ar      1 <0>        -0.0719
      3 C3          2.3793    1.4668   -0.0132 C.ar      1 <0>        -0.1007
      4 C4          2.4354    0.0653   -0.0212 C.ar      1 <0>         0.1885
      5 C5          1.2279   -0.6770   -0.0132 C.ar      1 <0>        -0.1855
      6 C6          0.0021   -0.0041    0.0020 C.ar      1 <0>        -0.0720
      7 C7          1.3079   -2.0925   -0.0210 C.ar      1 <0>         0.4873
      8 N1          2.5068   -2.6539   -0.0354 N.ar      1 <0>        -0.5541
      9 C8          3.6184   -1.9177   -0.0425 C.ar      1 <0>         0.4500
     10 N2          3.5995   -0.5960   -0.0358 N.ar      1 <0>        -0.5187
     11 C9          4.9247   -2.6074   -0.0582 C.2       1 <0>         0.2230
     12 N3          5.1173   -3.9066   -0.0718 N.2       1 <0>        -0.2143
     13 N4          6.3806   -4.1508   -0.0834 N.2       1 <0>        -0.2682
     14 C10         7.0443   -3.0150   -0.0776 C.2       1 <0>         0.2211
     15 O1          6.1382   -2.0182   -0.0670 O.3       1 <0>        -0.1914
     16 C11         8.5136   -2.8609   -0.0869 C.ar      1 <0>        -0.0164
     17 C12         9.0851   -1.5868   -0.0729 C.ar      1 <0>        -0.0755
     18 C13        10.4575   -1.4494   -0.0818 C.ar      1 <0>        -0.1060
     19 C14        11.2684   -2.5703   -0.1046 C.ar      1 <0>        -0.0811
     20 C15        10.7090   -3.8367   -0.1191 C.ar      1 <0>        -0.0388
     21 C16         9.3365   -3.9882   -0.1041 C.ar      1 <0>        -0.0564
     22 Cl1        11.7349   -5.2368   -0.1489 Cl        1 <0>        -0.0513
     23 N5          0.1658   -2.8650   -0.0133 N.pl3     1 <0>        -0.6896
     24 C17         0.2697   -4.3262   -0.0216 C.3       1 <0>         0.1250
     25 C18        -1.1329   -4.9374   -0.0105 C.3       1 <0>         0.0428
     26 N6         -1.0286   -6.4027   -0.0188 N.3       1 <0>        -0.5312
     27 C19        -0.4551   -6.8829   -1.2844 C.3       1 <0>         0.0116
     28 C20        -0.3092   -8.4058   -1.2270 C.3       1 <0>         0.0626
     29 O2         -1.5848   -8.9919   -0.9537 O.3       1 <0>        -0.3849
     30 C21        -2.1723   -8.5468    0.2719 C.3       1 <0>         0.0627
     31 C22        -2.3370   -7.0253    0.2297 C.3       1 <0>         0.0189
     32 H1         -0.9631    1.8798    0.0259 H         1 <0>         0.1349
     33 H2          1.1264    3.1708    0.0083 H         1 <0>         0.1382
     34 H3          3.2901    2.0471   -0.0195 H         1 <0>         0.1444
     35 H4         -0.9236   -0.5605    0.0082 H         1 <0>         0.1293
     36 H5          8.4538   -0.7108   -0.0554 H         1 <0>         0.1421
     37 H6         10.9003   -0.4644   -0.0712 H         1 <0>         0.1460
     38 H7         12.3424   -2.4569   -0.1115 H         1 <0>         0.1439
     39 H8          8.9008   -4.9764   -0.1106 H         1 <0>         0.1531
     40 H9         -0.7065   -2.4408   -0.0024 H         1 <0>         0.4141
     41 H10         0.7990   -4.6478   -0.9185 H         1 <0>         0.0772
     42 H11         0.8170   -4.6566    0.8613 H         1 <0>         0.0874
     43 H12        -1.6622   -4.6159    0.8865 H         1 <0>         0.0844
     44 H13        -1.6801   -4.6071   -0.8933 H         1 <0>         0.0434
     45 H14        -1.1142   -6.6112   -2.1089 H         1 <0>         0.0452
     46 H15         0.5242   -6.4289   -1.4356 H         1 <0>         0.0928
     47 H16         0.0622   -8.7722   -2.1840 H         1 <0>         0.1006
     48 H17         0.3917   -8.6748   -0.4367 H         1 <0>         0.0635
     49 H18        -3.1483   -9.0152    0.3989 H         1 <0>         0.1001
     50 H19        -1.5255   -8.8199    1.1057 H         1 <0>         0.0622
     51 H20        -2.7314   -6.6753    1.1837 H         1 <0>         0.0884
     52 H21        -3.0262   -6.7559   -0.5707 H         1 <0>         0.0452
@<TRIPOS>BOND
     1    1    6 ar
     2    1    2 ar
     3    1   32 1
     4    2    3 ar
     5    2   33 1
     6    3    4 ar
     7    3   34 1
     8    4   10 ar
     9    4    5 ar
    10    5    6 ar
    11    5    7 ar
    12    6   35 1
    13    7    8 ar
    14    7   23 1
    15    8    9 ar
    16    9   10 ar
    17    9   11 1
    18   11   15 1
    19   11   12 2
    20   12   13 1
    21   13   14 2
    22   14   15 1
    23   14   16 1
    24   16   21 ar
    25   16   17 ar
    26   17   18 ar
    27   17   36 1
    28   18   19 ar
    29   18   37 1
    30   19   20 ar
    31   19   38 1
    32   20   21 ar
    33   20   22 1
    34   21   39 1
    35   23   24 1
    36   23   40 1
    37   24   25 1
    38   24   41 1
    39   24   42 1
    40   25   26 1
    41   25   43 1
    42   25   44 1
    43   26   31 1
    44   26   27 1
    45   27   28 1
    46   27   45 1
    47   27   46 1
    48   28   29 1
    49   28   47 1
    50   28   48 1
    51   29   30 1
    52   30   31 1
    53   30   49 1
    54   30   50 1
    55   31   51 1
    56   31   52 1
@<TRIPOS>MOLECULE
ZINC09060243
   45    48     0     0     0
SMALL
USER_CHARGES
(2,6-dichlorophenyl)methyl-(2-hydroxyethyl)-dimethyl-BLAHdione
@<TRIPOS>ATOM
      1 C1          5.9390    0.2453   -0.0503 C.3       1 <0>        -0.0854
      2 C2          4.6607    1.0431   -0.0352 C.2       1 <0>         0.0713
      3 C3          3.4288    0.5425   -0.0264 C.2       1 <0>        -0.0120
      4 N1          2.5311    1.5955   -0.0131 N.pl3     1 <0>        -0.3491
      5 C4          1.1880    1.9403    0.0011 C.2       1 <0>        -0.1836
      6 C5          1.1412    3.3338    0.0086 C.2       1 <0>         0.3748
      7 N2          2.3959    3.7758   -0.0009 N.2       1 <0>        -0.5084
      8 C6          3.2360    2.7509   -0.0139 C.2       1 <0>         0.4411
      9 N3          4.5657    2.4218   -0.0276 N.pl3     1 <0>        -0.4553
     10 C7          5.6876    3.3639   -0.0328 C.3       1 <0>         0.1234
     11 C8          6.0911    3.6843    1.4078 C.3       1 <0>         0.0609
     12 O1          7.1855    4.6032    1.4027 O.3       1 <0>        -0.5665
     13 N4         -0.0961    3.9598    0.0233 N.am      1 <0>        -0.5100
     14 C9         -1.2233    3.2235    0.0301 C.2       1 <0>         0.7010
     15 O2         -2.3003    3.7881    0.0426 O.2       1 <0>        -0.5117
     16 N5         -1.1878    1.8799    0.0178 N.am      1 <0>        -0.5448
     17 C10        -0.0145    1.2146    0.0087 C.2       1 <0>         0.5892
     18 O3          0.0021   -0.0041    0.0020 O.2       1 <0>        -0.4984
     19 C11        -2.4438    1.1258    0.0201 C.3       1 <0>         0.1543
     20 C12        -2.8676    0.8600    1.4417 C.ar      1 <0>        -0.1091
     21 C13        -2.4502   -0.2917    2.0843 C.ar      1 <0>        -0.0112
     22 C14        -2.8352   -0.5326    3.3912 C.ar      1 <0>        -0.1182
     23 C15        -3.6453    0.3721    4.0513 C.ar      1 <0>        -0.0843
     24 C16        -4.0673    1.5203    3.4078 C.ar      1 <0>        -0.1176
     25 C17        -3.6787    1.7649    2.1027 C.ar      1 <0>        -0.0111
     26 Cl1        -4.2084    3.2073    1.2949 Cl        1 <0>        -0.0121
     27 Cl2        -1.4381   -1.4313    1.2532 Cl        1 <0>        -0.0157
     28 C18        -0.1767    5.4226    0.0319 C.3       1 <0>         0.0912
     29 H1          6.2562    0.0479    0.9737 H         1 <0>         0.0882
     30 H2          5.7716   -0.6996   -0.5673 H         1 <0>         0.0970
     31 H3          6.7140    0.8104   -0.5682 H         1 <0>         0.0818
     32 H4          3.1727   -0.5067   -0.0292 H         1 <0>         0.1947
     33 H5          6.5334    2.9187   -0.5566 H         1 <0>         0.1101
     34 H6          5.3889    4.2818   -0.5392 H         1 <0>         0.1091
     35 H7          5.2452    4.1295    1.9316 H         1 <0>         0.0560
     36 H8          6.3898    2.7664    1.9142 H         1 <0>         0.0545
     37 H9          7.4946    4.8516    2.2847 H         1 <0>         0.3919
     38 H10        -3.2160    1.7044   -0.4870 H         1 <0>         0.1182
     39 H11        -2.2997    0.1784   -0.4992 H         1 <0>         0.1172
     40 H12        -2.5057   -1.4296    3.8945 H         1 <0>         0.1399
     41 H13        -3.9489    0.1816    5.0701 H         1 <0>         0.1421
     42 H14        -4.7009    2.2265    3.9238 H         1 <0>         0.1407
     43 H15        -0.2061    5.7909   -0.9936 H         1 <0>         0.0727
     44 H16        -1.0806    5.7336    0.5557 H         1 <0>         0.0939
     45 H17         0.6966    5.8316    0.5399 H         1 <0>         0.0891
@<TRIPOS>BOND
     1    1    2 1
     2    1   29 1
     3    1   30 1
     4    1   31 1
     5    2    9 1
     6    2    3 2
     7    3    4 1
     8    3   32 1
     9    4    8 1
    10    4    5 1
    11    5   17 1
    12    5    6 2
    13    6    7 1
    14    6   13 1
    15    7    8 2
    16    8    9 1
    17    9   10 1
    18   10   11 1
    19   10   33 1
    20   10   34 1
    21   11   12 1
    22   11   35 1
    23   11   36 1
    24   12   37 1
    25   13   14 am
    26   13   28 1
    27   14   15 2
    28   14   16 am
    29   16   17 am
    30   16   19 1
    31   17   18 2
    32   19   20 1
    33   19   38 1
    34   19   39 1
    35   20   25 ar
    36   20   21 ar
    37   21   22 ar
    38   21   27 1
    39   22   23 ar
    40   22   40 1
    41   23   24 ar
    42   23   41 1
    43   24   25 ar
    44   24   42 1
    45   25   26 1
    46   28   43 1
    47   28   44 1
    48   28   45 1
@<TRIPOS>MOLECULE
ZINC15670456
   54    58     0     0     0
SMALL
USER_CHARGES
(4R)-1-[5-(3-methoxyphenyl)-1,2,4-triazin-3-yl]-3-methyl-4-(p-tolyl)-5,7-dihydro-4H-pyrazolo[4,5-e]pyridin-6-one
@<TRIPOS>ATOM
      1 C1          9.1588   11.5010   -2.8306 C.3       1 <0>        -0.1184
      2 C2          7.8558   11.4085   -2.0791 C.ar      1 <0>        -0.0825
      3 C3          7.8028   11.7560   -0.7422 C.ar      1 <0>        -0.1174
      4 C4          6.6074   11.6720   -0.0531 C.ar      1 <0>        -0.1053
      5 C5          5.4649   11.2410   -0.7010 C.ar      1 <0>        -0.0791
      6 C6          5.5190   10.8885   -2.0366 C.ar      1 <0>        -0.1033
      7 C7          6.7135   10.9766   -2.7268 C.ar      1 <0>        -0.1174
      8 C8          4.1617   11.1495    0.0502 C.3       1 <0>         0.0418
      9 H1          4.3082   11.4704    1.0816 H         1 <0>         0.0987
     10 C9          3.1133   12.0405   -0.6239 C.3       1 <0>        -0.1337
     11 C10         1.7258   11.6891   -0.1663 C.2       1 <0>         0.5342
     12 O1          0.9236   12.5804    0.0161 O.2       1 <0>        -0.5036
     13 N1          1.3445   10.4118    0.0480 N.am      1 <0>        -0.6393
     14 C11         2.3252    9.4220    0.0277 C.2       1 <0>         0.3499
     15 C12         3.6603    9.7278    0.0267 C.2       1 <0>        -0.2559
     16 C13         4.3729    8.5371    0.0108 C.2       1 <0>         0.1456
     17 N2          3.5157    7.5435    0.0141 N.2       1 <0>        -0.2547
     18 N3          2.2160    8.0761    0.0224 N.pl3     1 <0>        -0.3141
     19 C14         1.0279    7.3469    0.0298 C.ar      1 <0>         0.5146
     20 N4          1.0734    6.0230    0.0232 N.ar      1 <0>        -0.4582
     21 C15        -0.0646    5.3306    0.0303 C.ar      1 <0>         0.2423
     22 C16        -1.2748    6.0322    0.0393 C.ar      1 <0>        -0.0202
     23 N5         -1.2519    7.3523    0.0503 N.ar      1 <0>        -0.1404
     24 N6         -0.1327    7.9874    0.0430 N.ar      1 <0>        -0.3179
     25 C17        -0.0489    3.8477    0.0227 C.ar      1 <0>        -0.0378
     26 C18         1.1646    3.1613    0.0079 C.ar      1 <0>        -0.0944
     27 C19         1.1765    1.7813    0.0004 C.ar      1 <0>        -0.0847
     28 C20        -0.0126    1.0758    0.0080 C.ar      1 <0>        -0.1753
     29 C21        -1.2250    1.7513    0.0174 C.ar      1 <0>         0.1244
     30 C22        -1.2465    3.1364    0.0299 C.ar      1 <0>        -0.1145
     31 O2         -2.3914    1.0537    0.0195 O.3       1 <0>        -0.3138
     32 C23        -2.2946   -0.3720    0.0118 C.3       1 <0>         0.0250
     33 C24         5.8742    8.4073   -0.0012 C.3       1 <0>        -0.0907
     34 H2          9.6921   10.5538   -2.7511 H         1 <0>         0.0717
     35 H3          8.9585   11.7183   -3.8798 H         1 <0>         0.0663
     36 H4          9.7682   12.2980   -2.4045 H         1 <0>         0.0670
     37 H5          8.6953   12.0934   -0.2362 H         1 <0>         0.1238
     38 H6          6.5660   11.9435    0.9914 H         1 <0>         0.1259
     39 H7          4.6274   10.5476   -2.5416 H         1 <0>         0.1194
     40 H8          6.7548   10.7055   -3.7714 H         1 <0>         0.1221
     41 H9          3.3178   13.0823   -0.3770 H         1 <0>         0.1191
     42 H10         3.1758   11.9108   -1.7044 H         1 <0>         0.1103
     43 H11         0.4146   10.1894    0.2110 H         1 <0>         0.4276
     44 H12        -2.2152    5.5012    0.0409 H         1 <0>         0.2006
     45 H13         2.0951    3.7095    0.0020 H         1 <0>         0.1434
     46 H14         2.1172    1.2509   -0.0111 H         1 <0>         0.1369
     47 H15         0.0021   -0.0041    0.0020 H         1 <0>         0.1366
     48 H16        -2.1892    3.6633    0.0414 H         1 <0>         0.1417
     49 H17        -3.2953   -0.8042    0.0145 H         1 <0>         0.1046
     50 H18        -1.7617   -0.6952   -0.8825 H         1 <0>         0.0584
     51 H19        -1.7530   -0.7043    0.8974 H         1 <0>         0.0584
     52 H20         6.2436    8.3667    1.0235 H         1 <0>         0.0859
     53 H21         6.1558    7.4940   -0.5253 H         1 <0>         0.0788
     54 H22         6.3092    9.2673   -0.5104 H         1 <0>         0.0973
@<TRIPOS>BOND
     1    1    2 1
     2    1   34 1
     3    1   35 1
     4    1   36 1
     5    2    7 ar
     6    2    3 ar
     7    3    4 ar
     8    3   37 1
     9    4    5 ar
    10    4   38 1
    11    5    6 ar
    12    5    8 1
    13    6    7 ar
    14    6   39 1
    15    7   40 1
    16    8    9 1
    17    8   15 1
    18    8   10 1
    19   10   11 1
    20   10   41 1
    21   10   42 1
    22   11   12 2
    23   11   13 am
    24   13   14 1
    25   13   43 1
    26   14   18 1
    27   14   15 2
    28   15   16 1
    29   16   17 2
    30   16   33 1
    31   17   18 1
    32   18   19 1
    33   19   24 ar
    34   19   20 ar
    35   20   21 ar
    36   21   22 ar
    37   21   25 1
    38   22   23 ar
    39   22   44 1
    40   23   24 ar
    41   25   30 ar
    42   25   26 ar
    43   26   27 ar
    44   26   45 1
    45   27   28 ar
    46   27   46 1
    47   28   29 ar
    48   28   47 1
    49   29   30 ar
    50   29   31 1
    51   30   48 1
    52   31   32 1
    53   32   49 1
    54   32   50 1
    55   32   51 1
    56   33   52 1
    57   33   53 1
    58   33   54 1
@<TRIPOS>MOLECULE
ZINC13110661
   48    52     0     0     0
SMALL
USER_CHARGES

@<TRIPOS>ATOM
      1 C1         -0.0162    1.3454    0.0094 C.2       1 <0>        -0.2149
      2 C2          1.3215    1.7777   -0.0010 C.2       1 <0>        -0.1704
      3 C3          2.0980    0.6522   -0.0145 C.2       1 <0>        -0.0028
      4 O1          1.2790   -0.4193   -0.0124 O.3       1 <0>        -0.1641
      5 C4          0.0021   -0.0041    0.0020 C.2       1 <0>        -0.0283
      6 C5          3.5594    0.6166   -0.0293 C.2       1 <0>        -0.0216
      7 C6          4.2076   -0.5721   -0.0418 C.2       1 <0>        -0.0625
      8 C7          3.4160   -1.8445   -0.0465 C.3       1 <0>        -0.0755
      9 C8          4.2530   -3.0992    0.0990 C.3       1 <0>        -0.1185
     10 C9          5.6357   -2.9837   -0.5396 C.3       1 <0>        -0.1064
     11 C10         6.4057   -1.8799    0.1873 C.3       1 <0>        -0.1010
     12 H1          6.5230   -2.0988    1.2486 H         1 <0>         0.1190
     13 C11         5.6188   -0.5943   -0.0561 C.2       1 <0>         0.1532
     14 N1          6.4617    0.3568   -0.2752 N.2       1 <0>        -0.2326
     15 N2          7.7775   -0.0909   -0.4439 N.am      1 <0>        -0.4674
     16 C12         7.7538   -1.5796   -0.4899 C.3       1 <0>         0.2027
     17 H2          7.7586   -1.9280   -1.5227 H         1 <0>         0.1239
     18 C13         8.8952   -2.1832    0.2872 C.2       1 <0>        -0.0156
     19 C14         9.5302   -3.3308   -0.0114 C.2       1 <0>        -0.1843
     20 C15        10.5266   -3.5161    0.9744 C.2       1 <0>        -0.2121
     21 C16        10.4409   -2.4706    1.8164 C.2       1 <0>        -0.0267
     22 O2          9.4548   -1.6635    1.3920 O.3       1 <0>        -0.1657
     23 C17         8.8761    0.6850   -0.5306 C.2       1 <0>         0.5757
     24 O3          9.9678    0.1766   -0.6775 O.2       1 <0>        -0.4908
     25 C18         8.7484    2.1842   -0.4450 C.3       1 <0>        -0.1252
     26 S1         10.3906    2.9403   -0.5938 S.3       1 <0>         0.0765
     27 C19        10.0757    4.6700   -0.4762 C.2       1 <0>         0.2478
     28 N3          8.8972    5.2345   -0.3164 N.2       1 <0>        -0.5434
     29 C20         9.0365    6.5598   -0.2693 C.2       1 <0>         0.2143
     30 N4         10.3004    6.8623   -0.3976 N.2       1 <0>        -0.3067
     31 H3         11.9591    5.5439   -0.6359 H         1 <0>         0.4462
     32 N5         11.0012    5.6524   -0.5282 N.pl3     1 <0>        -0.4599
     33 H4         -0.8936    1.9749    0.0252 H         1 <0>         0.1519
     34 H5          1.6686    2.8004    0.0006 H         1 <0>         0.1538
     35 H6         -0.8674   -0.6447    0.0074 H         1 <0>         0.2058
     36 H7          4.1220    1.5385   -0.0304 H         1 <0>         0.1574
     37 H8          2.6992   -1.8094    0.7739 H         1 <0>         0.0901
     38 H9          2.8622   -1.9044   -0.9834 H         1 <0>         0.0846
     39 H10         4.3752   -3.3165    1.1601 H         1 <0>         0.0667
     40 H11         3.7216   -3.9295   -0.3660 H         1 <0>         0.0771
     41 H12         6.1672   -3.9300   -0.4398 H         1 <0>         0.0814
     42 H13         5.5336   -2.7278   -1.5943 H         1 <0>         0.0759
     43 H14         9.3191   -3.9854   -0.8440 H         1 <0>         0.1496
     44 H15        11.2227   -4.3392    1.0392 H         1 <0>         0.1508
     45 H16        11.0622   -2.3060    2.6843 H         1 <0>         0.2033
     46 H17         8.1096    2.5411   -1.2528 H         1 <0>         0.1344
     47 H18         8.3082    2.4572    0.5140 H         1 <0>         0.1311
     48 H19         8.2322    7.2698   -0.1452 H         1 <0>         0.2233
@<TRIPOS>BOND
     1    1    5 2
     2    1    2 1
     3    1   33 1
     4    2    3 2
     5    2   34 1
     6    3    4 1
     7    3    6 1
     8    4    5 1
     9    5   35 1
    10    6    7 2
    11    6   36 1
    12    7   13 1
    13    7    8 1
    14    8    9 1
    15    8   37 1
    16    8   38 1
    17    9   10 1
    18    9   39 1
    19    9   40 1
    20   10   11 1
    21   10   41 1
    22   10   42 1
    23   11   12 1
    24   11   16 1
    25   11   13 1
    26   13   14 2
    27   14   15 1
    28   15   16 1
    29   15   23 am
    30   16   17 1
    31   16   18 1
    32   18   22 1
    33   18   19 2
    34   19   20 1
    35   19   43 1
    36   20   21 2
    37   20   44 1
    38   21   22 1
    39   21   45 1
    40   23   24 2
    41   23   25 1
    42   25   46 1
    43   25   47 1
    44   25   26 1
    45   26   27 1
    46   27   28 2
    47   27   32 1
    48   28   29 1
    49   29   48 1
    50   29   30 2
    51   30   32 1
    52   31   32 1
@<TRIPOS>MOLECULE
ZINC44416371
   51    55     0     0     0
SMALL
USER_CHARGES

@<TRIPOS>ATOM
      1 C1         -0.0188    1.5258   -0.0084 C.3       1 <0>        -0.1455
      2 C2          0.0021   -0.0041    0.0020 C.3       1 <0>        -0.0552
      3 C3          0.7365   -0.4956    1.2510 C.3       1 <0>        -0.1457
      4 C4         -1.4117   -0.5257    0.0127 C.ar      1 <0>        -0.0968
      5 C5         -2.2629   -0.1905    1.0497 C.ar      1 <0>        -0.0849
      6 C6         -3.5592   -0.6670    1.0624 C.ar      1 <0>        -0.1497
      7 C7         -4.0076   -1.4830    0.0321 C.ar      1 <0>         0.1570
      8 C8         -3.1505   -1.8174   -1.0081 C.ar      1 <0>        -0.1531
      9 C9         -1.8568   -1.3338   -1.0174 C.ar      1 <0>        -0.0899
     10 N1         -5.3202   -1.9677    0.0423 N.am      1 <0>        -0.5564
     11 C10        -5.9269   -2.7384   -1.0495 C.3       1 <0>         0.1076
     12 C11        -7.4506   -2.6714   -0.8042 C.3       1 <0>        -0.0177
     13 H1         -7.8967   -1.8379   -1.3467 H         1 <0>         0.1377
     14 C12        -7.5140   -2.4352    0.7226 C.3       1 <0>        -0.1459
     15 C13        -6.1857   -1.7922    1.0557 C.2       1 <0>         0.5232
     16 O1         -5.9385   -1.2020    2.0860 O.2       1 <0>        -0.4966
     17 C14        -8.1147   -3.9716   -1.1776 C.2       1 <0>         0.2677
     18 N2         -9.0614   -4.1177   -2.1062 N.2       1 <0>        -0.5255
     19 C15        -9.4245   -5.3804   -2.1831 C.2       1 <0>         0.3651
     20 O2         -8.7010   -6.0753   -1.2866 O.3       1 <0>        -0.0759
     21 N3         -7.8517   -5.1333   -0.6488 N.2       1 <0>        -0.3159
     22 C16       -10.4432   -5.9348   -3.0903 C.2       1 <0>         0.1262
     23 C17       -10.8278   -7.2442   -3.1702 C.2       1 <0>        -0.1660
     24 C18       -11.8209   -7.3397   -4.1597 C.2       1 <0>         0.1501
     25 N4        -12.0279   -6.1359   -4.6577 N.2       1 <0>        -0.2162
     26 N5        -11.1810   -5.2333   -4.0022 N.pl3     1 <0>        -0.4281
     27 H2        -11.1266   -4.2790   -4.1672 H         1 <0>         0.4568
     28 C19       -12.5152   -8.5786   -4.5727 C.2       1 <0>         0.0374
     29 C20       -13.4719   -8.6741   -5.5330 C.2       1 <0>        -0.1528
     30 C21       -13.8514  -10.0305   -5.5947 C.2       1 <0>        -0.2164
     31 C22       -13.1150  -10.6881   -4.6784 C.2       1 <0>        -0.0143
     32 O3        -12.3048   -9.8086   -4.0664 O.3       1 <0>        -0.1649
     33 H3          1.0038    1.9031   -0.0161 H         1 <0>         0.0585
     34 H4         -0.5420    1.8760   -0.8981 H         1 <0>         0.0557
     35 H5         -0.5331    1.8882    0.8818 H         1 <0>         0.0569
     36 H6          0.5163   -0.3665   -0.8881 H         1 <0>         0.0771
     37 H7          0.7514   -1.5855    1.2584 H         1 <0>         0.0558
     38 H8          1.7591   -0.1183    1.2433 H         1 <0>         0.0586
     39 H9          0.2222   -0.1332    2.1411 H         1 <0>         0.0570
     40 H10        -1.9136    0.4441    1.8507 H         1 <0>         0.1267
     41 H11        -4.2233   -0.4054    1.8730 H         1 <0>         0.1544
     42 H12        -3.4961   -2.4521   -1.8106 H         1 <0>         0.1241
     43 H13        -1.1909   -1.5901   -1.8281 H         1 <0>         0.1266
     44 H14        -5.6795   -2.2890   -2.0112 H         1 <0>         0.1026
     45 H15        -5.5846   -3.7728   -1.0165 H         1 <0>         0.0891
     46 H16        -8.3378   -1.7661    0.9712 H         1 <0>         0.1236
     47 H17        -7.6181   -3.3827    1.2513 H         1 <0>         0.1185
     48 H18       -10.4376   -8.0595   -2.5790 H         1 <0>         0.1738
     49 H19       -13.8656   -7.8669   -6.1328 H         1 <0>         0.1573
     50 H20       -14.5928  -10.4607   -6.2517 H         1 <0>         0.1563
     51 H21       -13.1646  -11.7472   -4.4729 H         1 <0>         0.2118
@<TRIPOS>BOND
     1    1    2 1
     2    1   33 1
     3    1   34 1
     4    1   35 1
     5    2    3 1
     6    2    4 1
     7    2   36 1
     8    3   37 1
     9    3   38 1
    10    3   39 1
    11    4    9 ar
    12    4    5 ar
    13    5    6 ar
    14    5   40 1
    15    6    7 ar
    16    6   41 1
    17    7    8 ar
    18    7   10 1
    19    8    9 ar
    20    8   42 1
    21    9   43 1
    22   10   15 am
    23   10   11 1
    24   11   12 1
    25   11   44 1
    26   11   45 1
    27   12   13 1
    28   12   14 1
    29   12   17 1
    30   14   15 1
    31   14   46 1
    32   14   47 1
    33   15   16 2
    34   17   21 2
    35   17   18 1
    36   18   19 2
    37   19   20 1
    38   19   22 1
    39   20   21 1
    40   22   26 1
    41   22   23 2
    42   23   24 1
    43   23   48 1
    44   24   25 2
    45   24   28 1
    46   25   26 1
    47   26   27 1
    48   28   32 1
    49   28   29 2
    50   29   30 1
    51   29   49 1
    52   30   31 2
    53   30   50 1
    54   31   32 1
    55   31   51 1
@<TRIPOS>MOLECULE
ZINC32096988
   52    55     0     0     0
SMALL
USER_CHARGES

@<TRIPOS>ATOM
      1 C1          0.2263    0.8327   -0.5097 C.3       1 <0>        -0.0801
      2 C2          0.3333   -0.6473   -0.7726 C.2       1 <0>         0.1518
      3 C3          0.3622   -1.2508   -2.0216 C.2       1 <0>        -0.2611
      4 C4          0.4708   -2.6032   -1.8356 C.2       1 <0>         0.3501
      5 N1          0.4990   -2.8307   -0.5053 N.pl3     1 <0>        -0.3254
      6 N2          0.4209   -1.5860    0.1407 N.2       1 <0>        -0.2807
      7 C5          0.5935   -4.0793    0.1168 C.ar      1 <0>         0.3174
      8 C6          1.1178   -4.1816    1.4039 C.ar      1 <0>        -0.0907
      9 C7          1.1899   -5.4415    1.9773 C.ar      1 <0>        -0.0761
     10 C8          0.7356   -6.5234    1.2342 C.ar      1 <0>         0.1018
     11 N3          0.2537   -6.3334    0.0207 N.ar      1 <0>        -0.1908
     12 N4          0.1803   -5.1681   -0.5124 N.ar      1 <0>        -0.2507
     13 Cl1         0.8022   -8.1246    1.9015 Cl        1 <0>         0.0144
     14 N5          0.5446   -3.4914   -2.9073 N.am      1 <0>        -0.6424
     15 C9          0.7107   -2.9806   -4.1458 C.2       1 <0>         0.5344
     16 O1          0.5888   -3.7132   -5.1047 O.2       1 <0>        -0.5025
     17 C10         1.0415   -1.5327   -4.3736 C.3       1 <0>        -0.1331
     18 C11         0.2881   -0.6288   -3.3930 C.3       1 <0>         0.0452
     19 H1         -0.7539   -0.5414   -3.7008 H         1 <0>         0.0965
     20 C12         0.9268    0.7359   -3.3669 C.ar      1 <0>        -0.0716
     21 C13         2.2585    0.8676   -3.0196 C.ar      1 <0>        -0.1018
     22 C14         2.8490    2.1173   -2.9942 C.ar      1 <0>        -0.1724
     23 C15         2.1061    3.2414   -3.3175 C.ar      1 <0>         0.1085
     24 C16         0.7658    3.1087   -3.6674 C.ar      1 <0>         0.1024
     25 C17         0.1813    1.8527   -3.6956 C.ar      1 <0>        -0.1635
     26 O2          0.0324    4.2089   -3.9856 O.3       1 <0>        -0.3048
     27 C18        -1.3369    3.9971   -4.3348 C.3       1 <0>         0.0248
     28 O3          2.6853    4.4715   -3.2925 O.3       1 <0>        -0.2985
     29 C19         4.0282    4.5465   -2.8098 C.3       1 <0>         0.0766
     30 C20         4.9987    4.2419   -3.9527 C.3       1 <0>        -0.1820
     31 C21         4.2991    5.9531   -2.2720 C.3       1 <0>        -0.1495
     32 H2          1.2251    1.2669   -0.4646 H         1 <0>         0.0869
     33 H3         -0.3390    1.3045   -1.3134 H         1 <0>         0.0874
     34 H4         -0.2846    0.9972    0.4390 H         1 <0>         0.0785
     35 H5          1.4576   -3.3065    1.9378 H         1 <0>         0.1756
     36 H6          1.5879   -5.5778    2.9720 H         1 <0>         0.1753
     37 H7          0.4788   -4.4490   -2.7672 H         1 <0>         0.4248
     38 H8          2.1135   -1.3864   -4.2419 H         1 <0>         0.1110
     39 H9          0.7676   -1.2601   -5.3928 H         1 <0>         0.1187
     40 H10         2.8387   -0.0077   -2.7674 H         1 <0>         0.1236
     41 H11         3.8893    2.2175   -2.7219 H         1 <0>         0.1368
     42 H12        -0.8577    1.7466   -3.9705 H         1 <0>         0.1376
     43 H13        -1.3929    3.3456   -5.2069 H         1 <0>         0.0557
     44 H14        -1.8572    3.5301   -3.4985 H         1 <0>         0.0558
     45 H15        -1.8053    4.9539   -4.5655 H         1 <0>         0.1007
     46 H16         4.1682    3.8187   -2.0105 H         1 <0>         0.0727
     47 H17         4.8587    4.9697   -4.7520 H         1 <0>         0.0685
     48 H18         6.0231    4.2991   -3.5845 H         1 <0>         0.0720
     49 H19         4.8058    3.2398   -4.3358 H         1 <0>         0.0627
     50 H20         3.6077    6.1701   -1.4578 H         1 <0>         0.0654
     51 H21         5.3234    6.0103   -1.9038 H         1 <0>         0.0767
     52 H22         4.1591    6.6808   -3.0713 H         1 <0>         0.0677
@<TRIPOS>BOND
     1    1    2 1
     2    1   32 1
     3    1   33 1
     4    1   34 1
     5    2    6 2
     6    2    3 1
     7    3   18 1
     8    3    4 2
     9    4    5 1
    10    4   14 1
    11    5    6 1
    12    5    7 1
    13    7   12 ar
    14    7    8 ar
    15    8    9 ar
    16    8   35 1
    17    9   10 ar
    18    9   36 1
    19   10   11 ar
    20   10   13 1
    21   11   12 ar
    22   14   15 am
    23   14   37 1
    24   15   16 2
    25   15   17 1
    26   17   18 1
    27   17   38 1
    28   17   39 1
    29   18   19 1
    30   18   20 1
    31   20   25 ar
    32   20   21 ar
    33   21   22 ar
    34   21   40 1
    35   22   23 ar
    36   22   41 1
    37   23   24 ar
    38   23   28 1
    39   24   25 ar
    40   24   26 1
    41   25   42 1
    42   26   27 1
    43   27   43 1
    44   27   44 1
    45   27   45 1
    46   28   29 1
    47   29   30 1
    48   29   31 1
    49   29   46 1
    50   30   47 1
    51   30   48 1
    52   30   49 1
    53   31   50 1
    54   31   51 1
    55   31   52 1
@<TRIPOS>MOLECULE
ZINC10870955
   53    56     0     0     0
SMALL
USER_CHARGES
3-(2-chlorophenyl)-N-[2-(3,4-dihydro-2H-quinolin-1-ylsulfonyl)ethyl]-5-methyl-isoxazole-4-carboxamide
@<TRIPOS>ATOM
      1 C1          4.1105    5.6757   -0.0539 C.3       1 <0>        -0.0843
      2 C2          3.0884    4.5755    0.0725 C.2       1 <0>         0.0300
      3 C3          1.7238    4.7162    0.0439 C.2       1 <0>        -0.2477
      4 C4          1.2468    3.3275    0.2133 C.2       1 <0>         0.0891
      5 N1          2.3328    2.6025    0.3036 N.2       1 <0>        -0.3223
      6 O1          3.3334    3.2725    0.2281 O.3       1 <0>         0.1122
      7 C5         -0.1585    2.8567    0.2636 C.ar      1 <0>        -0.0232
      8 C6         -1.0873    3.5113    1.0707 C.ar      1 <0>        -0.0789
      9 C7         -2.3935    3.0687    1.1140 C.ar      1 <0>        -0.1121
     10 C8         -2.7814    1.9735    0.3627 C.ar      1 <0>        -0.0901
     11 C9         -1.8667    1.3228   -0.4446 C.ar      1 <0>        -0.1115
     12 C10        -0.5559    1.7567   -0.4963 C.ar      1 <0>        -0.0110
     13 Cl1         0.5934    0.9351   -1.5051 Cl        1 <0>        -0.0514
     14 C11         0.9305    5.9470   -0.1137 C.2       1 <0>         0.6051
     15 O2          0.6747    6.6340    0.8568 O.2       1 <0>        -0.5129
     16 N2          0.4880    6.3120   -1.3333 N.am      1 <0>        -0.7125
     17 C12        -0.3011    7.5363   -1.4900 C.3       1 <0>         0.1337
     18 C13        -0.6741    7.7176   -2.9627 C.3       1 <0>        -0.6579
     19 S1         -1.6512    9.2336   -3.1568 S.o2      1 <0>         2.6108
     20 O3         -2.9172    9.0836   -2.5292 O.2       1 <0>        -0.9271
     21 O4         -0.8436   10.3732   -2.8955 O.2       1 <0>        -0.9338
     22 N3         -1.9894    9.3176   -4.7757 N.pl3     1 <0>        -0.9351
     23 C14        -1.1737   10.1542   -5.6665 C.3       1 <0>         0.1011
     24 C15        -2.1272   10.9270   -6.5872 C.3       1 <0>        -0.1316
     25 C16        -2.8943    9.9283   -7.4536 C.3       1 <0>        -0.0787
     26 C17        -3.5195    8.8589   -6.5971 C.ar      1 <0>        -0.1097
     27 C18        -3.0531    8.5884   -5.3186 C.ar      1 <0>         0.1756
     28 C19        -3.6540    7.5955   -4.5550 C.ar      1 <0>        -0.1731
     29 C20        -4.7104    6.8711   -5.0703 C.ar      1 <0>        -0.0822
     30 C21        -5.1731    7.1386   -6.3455 C.ar      1 <0>        -0.1405
     31 C22        -4.5801    8.1284   -7.1056 C.ar      1 <0>        -0.0886
     32 H1          5.1121    5.2492    0.0011 H         1 <0>         0.0949
     33 H2          3.9831    6.1817   -1.0109 H         1 <0>         0.0961
     34 H3          3.9755    6.3919    0.7566 H         1 <0>         0.1006
     35 H4         -0.7852    4.3638    1.6610 H         1 <0>         0.1382
     36 H5         -3.1136    3.5755    1.7393 H         1 <0>         0.1385
     37 H6         -3.8039    1.6280    0.4038 H         1 <0>         0.1394
     38 H7         -2.1762    0.4712   -1.0323 H         1 <0>         0.1411
     39 H8          0.6920    5.7641   -2.1072 H         1 <0>         0.4082
     40 H9         -1.2092    7.4624   -0.8917 H         1 <0>         0.0896
     41 H10         0.2855    8.3920   -1.1558 H         1 <0>         0.0906
     42 H11         0.2340    7.7916   -3.5611 H         1 <0>         0.1458
     43 H12        -1.2607    6.8619   -3.2970 H         1 <0>         0.1451
     44 H13        -0.5822   10.8541   -5.0763 H         1 <0>         0.1089
     45 H14        -0.5135    9.5241   -6.2625 H         1 <0>         0.0804
     46 H15        -2.8297   11.5030   -5.9848 H         1 <0>         0.0755
     47 H16        -1.5538   11.5992   -7.2254 H         1 <0>         0.0891
     48 H17        -3.6762   10.4534   -8.0022 H         1 <0>         0.0827
     49 H18        -2.2085    9.4661   -8.1636 H         1 <0>         0.0796
     50 H19        -3.2915    7.3873   -3.5592 H         1 <0>         0.1298
     51 H20        -5.1746    6.0962   -4.4782 H         1 <0>         0.1299
     52 H21        -6.0001    6.5728   -6.7482 H         1 <0>         0.1264
     53 H22        -4.9454    8.3329   -8.1012 H         1 <0>         0.1279
@<TRIPOS>BOND
     1    1    2 1
     2    1   32 1
     3    1   33 1
     4    1   34 1
     5    2    6 1
     6    2    3 2
     7    3    4 1
     8    3   14 1
     9    4    5 2
    10    4    7 1
    11    5    6 1
    12    7   12 ar
    13    7    8 ar
    14    8    9 ar
    15    8   35 1
    16    9   10 ar
    17    9   36 1
    18   10   11 ar
    19   10   37 1
    20   11   12 ar
    21   11   38 1
    22   12   13 1
    23   14   15 2
    24   14   16 am
    25   16   17 1
    26   16   39 1
    27   17   18 1
    28   17   40 1
    29   17   41 1
    30   18   19 1
    31   18   42 1
    32   18   43 1
    33   19   20 2
    34   19   21 2
    35   19   22 1
    36   22   27 1
    37   22   23 1
    38   23   24 1
    39   23   44 1
    40   23   45 1
    41   24   25 1
    42   24   46 1
    43   24   47 1
    44   25   26 1
    45   25   48 1
    46   25   49 1
    47   26   31 ar
    48   26   27 ar
    49   27   28 ar
    50   28   29 ar
    51   28   50 1
    52   29   30 ar
    53   29   51 1
    54   30   31 ar
    55   30   52 1
    56   31   53 1
@<TRIPOS>MOLECULE
ZINC13960081
   41    43     0     0     0
SMALL
USER_CHARGES
[(5R)-3,5-bis(difluoromethyl)-5-hydroxy-4H-pyrazol-1-yl]-[1-[(2,4-dichlorophenoxy)methyl]pyrazol-3-yl]methanone
@<TRIPOS>ATOM
      1 C1          2.3806    1.4140   -0.0132 C.ar      1 <0>        -0.0604
      2 C2          2.4038    0.0323   -0.0208 C.ar      1 <0>        -0.1827
      3 C3          1.2145   -0.6805   -0.0132 C.ar      1 <0>         0.1491
      4 C4          0.0021   -0.0041    0.0020 C.ar      1 <0>        -0.0507
      5 C5         -0.0167    1.3779    0.0096 C.ar      1 <0>        -0.0619
      6 C6          1.1719    2.0867    0.0021 C.ar      1 <0>        -0.0551
      7 Cl1         1.1461    3.8225    0.0117 Cl        1 <0>        -0.0481
      8 Cl2        -1.4889   -0.8933    0.0110 Cl        1 <0>        -0.0348
      9 O1          1.2356   -2.0398   -0.0212 O.3       1 <0>        -0.3103
     10 C7          2.5186   -2.6687   -0.0368 C.3       1 <0>         0.3077
     11 N1          2.3492   -4.1238   -0.0435 N.pl3     1 <0>        -0.2904
     12 C8          1.1596   -4.7629   -0.0360 C.2       1 <0>         0.0030
     13 C9          1.4180   -6.0915   -0.0460 C.2       1 <0>        -0.1738
     14 C10         2.8288   -6.2024   -0.0599 C.2       1 <0>        -0.0174
     15 N2          3.3109   -4.9754   -0.0630 N.2       1 <0>        -0.2088
     16 C11         3.6118   -7.4542   -0.0744 C.2       1 <0>         0.6482
     17 O2          3.0415   -8.5281   -0.0752 O.2       1 <0>        -0.4800
     18 N3          4.9587   -7.4065   -0.0868 N.am      1 <0>        -0.4760
     19 C12         5.8586   -8.5717   -0.1019 C.3       1 <0>         0.2710
     20 C13         7.2627   -7.9340   -0.1124 C.3       1 <0>        -0.1084
     21 C14         6.9839   -6.4478   -0.1017 C.2       1 <0>         0.0150
     22 N4          5.7303   -6.2462   -0.0935 N.2       1 <0>        -0.1524
     23 C15         8.0356   -5.3685   -0.1064 C.3       1 <0>         0.3614
     24 F1          7.5495   -4.2408    0.5640 F         1 <0>        -0.1804
     25 F2          9.1856   -5.8351    0.5393 F         1 <0>        -0.1828
     26 C16         5.6585   -9.4247    1.1525 C.3       1 <0>         0.2432
     27 F3          4.3443   -9.9029    1.1865 F         1 <0>        -0.1737
     28 F4          6.5473  -10.5048    1.1285 F         1 <0>        -0.1825
     29 O3          5.6512   -9.3538   -1.2798 O.3       1 <0>        -0.5283
     30 H1          3.3069    1.9692   -0.0194 H         1 <0>         0.1492
     31 H2          3.3479   -0.4921   -0.0330 H         1 <0>         0.1501
     32 H3         -0.9593    1.9049    0.0170 H         1 <0>         0.1556
     33 H4          3.0627   -2.3621   -0.9302 H         1 <0>         0.1060
     34 H5          3.0794   -2.3723    0.8496 H         1 <0>         0.1066
     35 H6          0.1838   -4.3001   -0.0239 H         1 <0>         0.1889
     36 H7          0.6990   -6.8974   -0.0435 H         1 <0>         0.1687
     37 H8          7.8219   -8.2249    0.7768 H         1 <0>         0.1296
     38 H9          7.8042   -8.2154   -1.0155 H         1 <0>         0.1377
     39 H10         8.2790   -5.1028   -1.1351 H         1 <0>         0.1457
     40 H11         5.8476   -8.8182    2.0382 H         1 <0>         0.1208
     41 H12         4.7589   -9.7182   -1.3579 H         1 <0>         0.4013
@<TRIPOS>BOND
     1    1    6 ar
     2    1    2 ar
     3    1   30 1
     4    2    3 ar
     5    2   31 1
     6    3    4 ar
     7    3    9 1
     8    4    5 ar
     9    4    8 1
    10    5    6 ar
    11    5   32 1
    12    6    7 1
    13    9   10 1
    14   10   11 1
    15   10   33 1
    16   10   34 1
    17   11   15 1
    18   11   12 1
    19   12   13 2
    20   12   35 1
    21   13   14 1
    22   13   36 1
    23   14   15 2
    24   14   16 1
    25   16   17 2
    26   16   18 am
    27   18   22 1
    28   18   19 1
    29   19   20 1
    30   19   26 1
    31   19   29 1
    32   20   21 1
    33   20   37 1
    34   20   38 1
    35   21   22 2
    36   21   23 1
    37   23   24 1
    38   23   25 1
    39   23   39 1
    40   26   27 1
    41   26   28 1
    42   26   40 1
    43   29   41 1
@<TRIPOS>MOLECULE
ZINC32889798
   65    68     0     0     0
SMALL
USER_CHARGES
N-[(1R)-1-(2,3-dihydro-1,4-benzodioxin-6-yl)-2-methyl-propyl]-4-[(3-fluoro-4-methoxy-phenyl)methyl]piperazine-1-carboxamide
@<TRIPOS>ATOM
      1 C1         -3.2468   -1.5597    2.3596 C.3       1 <0>        -0.1488
      2 C2         -4.2550   -0.8634    1.4433 C.3       1 <0>        -0.0992
      3 C3         -4.5101    0.5569    1.9517 C.3       1 <0>        -0.1527
      4 C4         -3.6944   -0.8030    0.0209 C.3       1 <0>         0.2149
      5 H1         -3.5243   -1.8131   -0.3801 H         1 <0>         0.0980
      6 C5         -2.4006   -0.0303    0.0233 C.ar      1 <0>        -0.0794
      7 C6         -2.4224    1.3520    0.0375 C.ar      1 <0>        -0.1103
      8 C7         -1.2380    2.0642    0.0346 C.ar      1 <0>        -0.1093
      9 C8         -0.0239    1.3936    0.0252 C.ar      1 <0>         0.0516
     10 C9         -0.0021    0.0041    0.0136 C.ar      1 <0>         0.0556
     11 C10        -1.1944   -0.7046    0.0118 C.ar      1 <0>        -0.0990
     12 O1          1.1780   -0.6741    0.0050 O.3       1 <0>        -0.3065
     13 C11         2.3434    0.0678   -0.3714 C.3       1 <0>         0.0172
     14 C12         2.3267    1.4037    0.3839 C.3       1 <0>         0.0186
     15 O2          1.1342    2.1085    0.0219 O.3       1 <0>        -0.3059
     16 N1         -4.6598   -0.1363   -0.8565 N.am      1 <0>        -0.7510
     17 C13        -5.6596   -0.8436   -1.4190 C.2       1 <0>         0.7124
     18 O3         -5.7085   -2.0496   -1.2723 O.2       1 <0>        -0.5899
     19 N2         -6.6053   -0.2141   -2.1442 N.am      1 <0>        -0.6314
     20 C14        -6.5072    1.2264   -2.4246 C.3       1 <0>         0.1182
     21 C15        -6.6777    1.4356   -3.9377 C.3       1 <0>         0.0336
     22 N3         -7.9281    0.8017   -4.3766 N.3       1 <0>        -0.5285
     23 C16        -7.8898   -0.6522   -4.1694 C.3       1 <0>         0.0398
     24 C17        -7.7658   -0.9481   -2.6710 C.3       1 <0>         0.1334
     25 C18        -8.2186    1.1260   -5.7796 C.3       1 <0>         0.0963
     26 C19        -8.0092    2.6008   -6.0079 C.ar      1 <0>        -0.0957
     27 C20        -9.0601    3.4821   -5.8331 C.ar      1 <0>        -0.0649
     28 C21        -8.8706    4.8356   -6.0369 C.ar      1 <0>        -0.1816
     29 C22        -7.6277    5.3098   -6.4280 C.ar      1 <0>         0.0989
     30 C23        -6.5741    4.4227   -6.6084 C.ar      1 <0>         0.0690
     31 C24        -6.7682    3.0694   -6.3974 C.ar      1 <0>        -0.1114
     32 F1         -5.3615    4.8809   -6.9890 F         1 <0>        -0.1311
     33 O4         -7.4404    6.6405   -6.6341 O.3       1 <0>        -0.3094
     34 C25        -8.5684    7.4937   -6.4297 C.3       1 <0>         0.0218
     35 H2         -3.0634   -2.5808    1.9941 H         1 <0>         0.0572
     36 H3         -3.6498   -1.6031    3.3822 H         1 <0>         0.0580
     37 H4         -2.3024   -0.9957    2.3613 H         1 <0>         0.0587
     38 H5         -5.1995   -1.4273    1.4416 H         1 <0>         0.0794
     39 H6         -5.2350    1.0575    1.2929 H         1 <0>         0.0530
     40 H7         -3.5657    1.1209    1.9534 H         1 <0>         0.0634
     41 H8         -4.9131    0.5134    2.9743 H         1 <0>         0.0550
     42 H9         -3.3666    1.8762    0.0477 H         1 <0>         0.1305
     43 H10        -1.2578    3.1439    0.0454 H         1 <0>         0.1367
     44 H11        -1.1801   -1.7845    0.0010 H         1 <0>         0.1366
     45 H12         3.2442   -0.5050   -0.1061 H         1 <0>         0.1253
     46 H13         2.3293    0.2471   -1.4566 H         1 <0>         0.0792
     47 H14         2.3384    1.2126    1.4671 H         1 <0>         0.0800
     48 H15         3.2129    1.9932    0.1060 H         1 <0>         0.1254
     49 H16        -4.5686    0.9416   -1.0562 H         1 <0>         0.4089
     50 H17        -7.2982    1.7610   -1.8782 H         1 <0>         0.0792
     51 H18        -5.5233    1.5968   -2.1009 H         1 <0>         0.0777
     52 H19        -6.7138    2.5129   -4.1571 H         1 <0>         0.0944
     53 H20        -5.8281    0.9815   -4.4687 H         1 <0>         0.0401
     54 H21        -8.8152   -1.1024   -4.5580 H         1 <0>         0.0915
     55 H22        -7.0248   -1.0757   -4.7008 H         1 <0>         0.0415
     56 H23        -7.6202   -2.0268   -2.5124 H         1 <0>         0.0997
     57 H24        -8.6758   -0.6200   -2.1472 H         1 <0>         0.0739
     58 H25        -7.5453    0.5542   -6.4351 H         1 <0>         0.0477
     59 H26        -9.2623    0.8641   -6.0080 H         1 <0>         0.0929
     60 H27       -10.0296    3.1125   -5.5332 H         1 <0>         0.1361
     61 H28        -9.6914    5.5233   -5.8964 H         1 <0>         0.1400
     62 H29        -5.9499    2.3785   -6.5373 H         1 <0>         0.1388
     63 H30        -8.2804    8.5364   -6.6293 H         1 <0>         0.1063
     64 H31        -8.9142    7.4015   -5.3895 H         1 <0>         0.0601
     65 H32        -9.3789    7.2000   -7.1129 H         1 <0>         0.0598
@<TRIPOS>BOND
     1    1    2 1
     2    1   35 1
     3    1   36 1
     4    1   37 1
     5    2    3 1
     6    2    4 1
     7    2   38 1
     8    3   39 1
     9    3   40 1
    10    3   41 1
    11    4    5 1
    12    4    6 1
    13    4   16 1
    14    6   11 ar
    15    6    7 ar
    16    7    8 ar
    17    7   42 1
    18    8    9 ar
    19    8   43 1
    20    9   15 1
    21    9   10 ar
    22   10   11 ar
    23   10   12 1
    24   11   44 1
    25   12   13 1
    26   13   14 1
    27   13   45 1
    28   13   46 1
    29   14   15 1
    30   14   47 1
    31   14   48 1
    32   16   17 am
    33   16   49 1
    34   17   18 2
    35   17   19 am
    36   19   24 1
    37   19   20 1
    38   20   21 1
    39   20   50 1
    40   20   51 1
    41   21   22 1
    42   21   52 1
    43   21   53 1
    44   22   23 1
    45   22   25 1
    46   23   24 1
    47   23   54 1
    48   23   55 1
    49   24   56 1
    50   24   57 1
    51   25   26 1
    52   25   58 1
    53   25   59 1
    54   26   31 ar
    55   26   27 ar
    56   27   28 ar
    57   27   60 1
    58   28   29 ar
    59   28   61 1
    60   29   30 ar
    61   29   33 1
    62   30   31 ar
    63   30   32 1
    64   31   62 1
    65   33   34 1
    66   34   63 1
    67   34   64 1
    68   34   65 1
@<TRIPOS>MOLECULE
ZINC40342375
   56    60     0     0     0
SMALL
USER_CHARGES

@<TRIPOS>ATOM
      1 C1         -0.1762    0.7400   -1.9975 C.3       1 <0>         0.0260
      2 O1         -0.2914   -0.6843   -1.9979 O.3       1 <0>        -0.3137
      3 C2         -1.5062   -1.2052   -1.6823 C.ar      1 <0>         0.1779
      4 C3         -2.5673   -0.3617   -1.3841 C.ar      1 <0>        -0.2455
      5 C4         -3.8026   -0.8906   -1.0632 C.ar      1 <0>        -0.0128
      6 C5         -3.9850   -2.2603   -1.0378 C.ar      1 <0>        -0.1726
      7 C6         -2.9273   -3.1077   -1.3352 C.ar      1 <0>         0.1864
      8 C7         -1.6882   -2.5792   -1.6636 C.ar      1 <0>        -0.2476
      9 O2         -3.1072   -4.4545   -1.3101 O.3       1 <0>        -0.3042
     10 C8         -1.9519   -5.2674   -1.5255 C.3       1 <0>         0.0241
     11 C9         -5.3335   -2.8339   -0.6864 C.3       1 <0>         0.2617
     12 H1         -5.2355   -3.8868   -0.4220 H         1 <0>         0.1155
     13 C10        -6.2806   -2.6769   -1.8444 C.2       1 <0>        -0.1629
     14 C11        -6.5702   -2.9761   -3.1799 C.2       1 <0>         0.1086
     15 N1         -7.7162   -2.3947   -3.4748 N.2       1 <0>        -0.2427
     16 N2         -8.1787   -1.7582   -2.4582 N.pl3     1 <0>        -0.3344
     17 H2         -9.0090   -1.2568   -2.4455 H         1 <0>         0.4530
     18 C12        -7.3272   -1.8928   -1.3986 C.2       1 <0>        -0.0595
     19 C13        -7.0825   -1.5421    0.0048 C.2       1 <0>         0.6033
     20 O3         -7.8206   -0.8587    0.6885 O.2       1 <0>        -0.5046
     21 N3         -5.9259   -2.0854    0.4297 N.am      1 <0>        -0.5921
     22 C14        -5.3558   -1.9526    1.7726 C.3       1 <0>         0.1328
     23 C15        -4.5625   -0.6475    1.8632 C.3       1 <0>         0.0545
     24 H3         -3.7081   -0.6866    1.1874 H         1 <0>         0.0900
     25 C16        -4.0749   -0.4304    3.3118 C.3       1 <0>        -0.1491
     26 C17        -4.2625    1.1002    3.4968 C.3       1 <0>        -0.1550
     27 C18        -5.5311    1.3465    2.6419 C.3       1 <0>         0.0524
     28 O4         -5.4049    0.4582    1.5178 O.3       1 <0>        -0.3630
     29 C19        -5.7400   -3.7973   -4.0964 C.ar      1 <0>        -0.0034
     30 C20        -4.3573   -3.6301   -4.1255 C.ar      1 <0>        -0.0754
     31 C21        -3.5896   -4.3958   -4.9793 C.ar      1 <0>        -0.1094
     32 C22        -4.1916   -5.3286   -5.8063 C.ar      1 <0>        -0.0267
     33 C23        -5.5652   -5.4984   -5.7810 C.ar      1 <0>        -0.1110
     34 C24        -6.3406   -4.7417   -4.9261 C.ar      1 <0>        -0.0783
     35 Cl1        -3.2208   -6.2881   -6.8790 Cl        1 <0>        -0.0688
     36 H4          0.8419    1.0223   -2.2653 H         1 <0>         0.1027
     37 H5         -0.8727    1.1610   -2.7226 H         1 <0>         0.0586
     38 H6         -0.4102    1.1232   -1.0042 H         1 <0>         0.0580
     39 H7         -2.4271    0.7090   -1.4025 H         1 <0>         0.1313
     40 H8         -4.6271   -0.2326   -0.8314 H         1 <0>         0.1356
     41 H9         -0.8649   -3.2371   -1.8998 H         1 <0>         0.1408
     42 H10        -1.4991   -5.0091   -2.4827 H         1 <0>         0.0595
     43 H11        -1.2323   -5.0956   -0.7250 H         1 <0>         0.0587
     44 H12        -2.2430   -6.3178   -1.5330 H         1 <0>         0.1037
     45 H13        -6.1594   -1.9412    2.5090 H         1 <0>         0.0901
     46 H14        -4.6932   -2.7951    1.9710 H         1 <0>         0.0977
     47 H15        -4.6942   -0.9851    4.0168 H         1 <0>         0.0806
     48 H16        -3.0258   -0.7078    3.4137 H         1 <0>         0.0839
     49 H17        -4.4389    1.3508    4.5428 H         1 <0>         0.0838
     50 H18        -3.4092    1.6511    3.1013 H         1 <0>         0.0772
     51 H19        -6.4263    1.1069    3.2157 H         1 <0>         0.0616
     52 H20        -5.5638    2.3820    2.3031 H         1 <0>         0.0828
     53 H21        -3.8868   -2.9021   -3.4812 H         1 <0>         0.1333
     54 H22        -2.5176   -4.2668   -5.0026 H         1 <0>         0.1338
     55 H23        -6.0304   -6.2274   -6.4280 H         1 <0>         0.1372
     56 H24        -7.4117   -4.8783   -4.9035 H         1 <0>         0.1358
@<TRIPOS>BOND
     1    1    2 1
     2    1   36 1
     3    1   37 1
     4    1   38 1
     5    2    3 1
     6    3    8 ar
     7    3    4 ar
     8    4    5 ar
     9    4   39 1
    10    5    6 ar
    11    5   40 1
    12    6    7 ar
    13    6   11 1
    14    7    8 ar
    15    7    9 1
    16    8   41 1
    17    9   10 1
    18   10   42 1
    19   10   43 1
    20   10   44 1
    21   11   12 1
    22   11   21 1
    23   11   13 1
    24   13   18 2
    25   13   14 1
    26   14   15 2
    27   14   29 1
    28   15   16 1
    29   16   17 1
    30   16   18 1
    31   18   19 1
    32   19   20 2
    33   19   21 am
    34   21   22 1
    35   22   23 1
    36   22   45 1
    37   22   46 1
    38   23   24 1
    39   23   28 1
    40   23   25 1
    41   25   26 1
    42   25   47 1
    43   25   48 1
    44   26   27 1
    45   26   49 1
    46   26   50 1
    47   27   28 1
    48   27   51 1
    49   27   52 1
    50   29   34 ar
    51   29   30 ar
    52   30   31 ar
    53   30   53 1
    54   31   32 ar
    55   31   54 1
    56   32   33 ar
    57   32   35 1
    58   33   34 ar
    59   33   55 1
    60   34   56 1
@<TRIPOS>MOLECULE
ZINC60241373
   56    59     0     0     0
SMALL
USER_CHARGES

@<TRIPOS>ATOM
      1 C1          0.0475    1.5240    0.0652 C.3       1 <0>        -0.1656
      2 C2          0.0021   -0.0041    0.0020 C.3       1 <0>         0.2239
      3 C3          0.6670   -0.5862    1.2510 C.3       1 <0>        -0.1616
      4 C4         -1.4323   -0.4617   -0.0630 C.ar      1 <0>        -0.0774
      5 C5         -2.4105    0.2357    0.6213 C.ar      1 <0>        -0.0960
      6 C6         -3.7277   -0.1799    0.5644 C.ar      1 <0>        -0.0927
      7 C7         -4.0705   -1.2977   -0.1789 C.ar      1 <0>         0.0331
      8 C8         -3.0852   -2.0002   -0.8682 C.ar      1 <0>         0.0386
      9 C9         -1.7680   -1.5745   -0.8112 C.ar      1 <0>        -0.1012
     10 O1         -3.6702   -3.0491   -1.5169 O.3       1 <0>        -0.3078
     11 C10        -4.9547   -3.2211   -0.8894 C.3       1 <0>         0.2130
     12 O2         -5.2729   -1.9064   -0.3959 O.3       1 <0>        -0.3072
     13 N1          0.7162   -0.4649   -1.1912 N.am      1 <0>        -0.7248
     14 C11         2.0275   -0.1909   -1.3396 C.2       1 <0>         0.5191
     15 O3          2.6162    0.4372   -0.4854 O.2       1 <0>        -0.5145
     16 C12         2.7621   -0.6650   -2.5671 C.3       1 <0>        -0.0682
     17 C13         4.2032   -0.2314   -2.4888 C.2       1 <0>        -0.0900
     18 C14         5.2640   -0.8864   -1.9567 C.2       1 <0>        -0.1768
     19 C15         6.5100   -0.2893   -1.9981 C.2       1 <0>        -0.0019
     20 C16         6.6343    0.9336   -2.5695 C.2       1 <0>        -0.7642
     21 S1          4.9578    1.2748   -3.0797 S.3       1 <0>         0.1812
     22 S2          8.0772    1.9259   -2.7641 S.o2      1 <0>         2.7230
     23 O4          7.6323    3.2700   -2.8860 O.2       1 <0>        -0.9462
     24 O5          8.9918    1.5146   -1.7574 O.2       1 <0>        -0.9457
     25 N2          8.7587    1.5193   -4.2175 N.pl3     1 <0>        -0.9929
     26 C17         9.7524    0.4404   -4.3027 C.3       1 <0>         0.1182
     27 C18         9.2976   -0.5661   -5.3642 C.3       1 <0>        -0.1367
     28 C19         9.0515    0.1673   -6.6847 C.3       1 <0>        -0.1182
     29 C20         7.9418    1.2040   -6.4952 C.3       1 <0>        -0.1373
     30 C21         8.3767    2.2265   -5.4474 C.3       1 <0>         0.1177
     31 H1          1.0850    1.8550    0.1122 H         1 <0>         0.0842
     32 H2         -0.4262    1.9386   -0.8246 H         1 <0>         0.0606
     33 H3         -0.4838    1.8668    0.9530 H         1 <0>         0.0710
     34 H4          0.1357   -0.2433    2.1388 H         1 <0>         0.0689
     35 H5          0.6347   -1.6747    1.2060 H         1 <0>         0.0575
     36 H6          1.7045   -0.2551    1.2980 H         1 <0>         0.0864
     37 H7         -2.1449    1.1068    1.2018 H         1 <0>         0.1448
     38 H8         -4.4897    0.3668    1.0999 H         1 <0>         0.1405
     39 H9         -1.0024   -2.1148   -1.3483 H         1 <0>         0.1339
     40 H10        -5.6967   -3.5463   -1.6187 H         1 <0>         0.1345
     41 H11        -4.8869   -3.9330   -0.0668 H         1 <0>         0.0870
     42 H12         0.2454   -0.9673   -1.8745 H         1 <0>         0.4015
     43 H13         2.7124   -1.7524   -2.6229 H         1 <0>         0.1238
     44 H14         2.3008   -0.2340   -3.4557 H         1 <0>         0.1163
     45 H15         5.1375   -1.8600   -1.5069 H         1 <0>         0.1424
     46 H16         7.3715   -0.7895   -1.5810 H         1 <0>         0.1464
     47 H17        10.7199    0.8561   -4.5840 H         1 <0>         0.0787
     48 H18         9.8336   -0.0586   -3.3370 H         1 <0>         0.0909
     49 H19        10.0718   -1.3203   -5.5058 H         1 <0>         0.0769
     50 H20         8.3756   -1.0473   -5.0380 H         1 <0>         0.0666
     51 H21         9.9673    0.6688   -6.9977 H         1 <0>         0.0663
     52 H22         8.7515   -0.5503   -7.4483 H         1 <0>         0.0655
     53 H23         7.7509    1.7098   -7.4417 H         1 <0>         0.0778
     54 H24         7.0325    0.7062   -6.1583 H         1 <0>         0.0670
     55 H25         7.5505    2.9056   -5.2368 H         1 <0>         0.0909
     56 H26         9.2295    2.7911   -5.8242 H         1 <0>         0.0786
@<TRIPOS>BOND
     1    1    2 1
     2    1   31 1
     3    1   32 1
     4    1   33 1
     5    2    3 1
     6    2    4 1
     7    2   13 1
     8    3   34 1
     9    3   35 1
    10    3   36 1
    11    4    9 ar
    12    4    5 ar
    13    5    6 ar
    14    5   37 1
    15    6    7 ar
    16    6   38 1
    17    7   12 1
    18    7    8 ar
    19    8    9 ar
    20    8   10 1
    21    9   39 1
    22   10   11 1
    23   11   12 1
    24   11   40 1
    25   11   41 1
    26   13   14 am
    27   13   42 1
    28   14   15 2
    29   14   16 1
    30   16   17 1
    31   16   43 1
    32   16   44 1
    33   17   21 1
    34   17   18 2
    35   18   19 1
    36   18   45 1
    37   19   20 2
    38   19   46 1
    39   20   21 1
    40   20   22 1
    41   22   23 2
    42   22   24 2
    43   22   25 1
    44   25   30 1
    45   25   26 1
    46   26   27 1
    47   26   47 1
    48   26   48 1
    49   27   28 1
    50   27   49 1
    51   27   50 1
    52   28   29 1
    53   28   51 1
    54   28   52 1
    55   29   30 1
    56   29   53 1
    57   29   54 1
    58   30   55 1
    59   30   56 1
@<TRIPOS>MOLECULE
ZINC08263719
   58    61     0     0     0
SMALL
USER_CHARGES
N-[oxo-(2-phenoxyacetyl)-BLAHyl]propane-1-sulfonamide
@<TRIPOS>ATOM
      1 C1          5.3790   -1.6909    7.2023 C.3       1 <0>        -0.1454
      2 C2          5.1668   -2.4304    5.8799 C.3       1 <0>        -0.1154
      3 C3          4.0167   -1.7784    5.1098 C.3       1 <0>        -0.6337
      4 S1          3.7650   -2.6552    3.5419 S.o2      1 <0>         2.5993
      5 O1          3.1654   -3.9213    3.7799 O.2       1 <0>        -0.9423
      6 O2          4.9242   -2.5442    2.7275 O.2       1 <0>        -0.9373
      7 N1          2.6048   -1.7810    2.7469 N.pl3     1 <0>        -1.0466
      8 C4          2.8834   -0.4757    2.3143 C.2       1 <0>         0.0507
      9 C5          4.1118    0.1199    2.6401 C.2       1 <0>        -0.0649
     10 C6          4.3453    1.4053    2.2483 C.2       1 <0>        -0.1944
     11 C7          3.3683    2.0822    1.5061 C.2       1 <0>         0.5046
     12 O3          3.5388    3.2548    1.2109 O.2       1 <0>        -0.5359
     13 N2          2.2358    1.4499    1.1126 N.am      1 <0>        -0.4702
     14 C8          1.9581    0.2075    1.5795 C.2       1 <0>         0.1431
     15 C9          0.6341   -0.4715    1.3198 C.3       1 <0>        -0.0725
     16 H1          0.7719   -1.5510    1.2582 H         1 <0>         0.1172
     17 C10         0.0295    0.0576    0.0165 C.3       1 <0>        -0.1132
     18 C11        -0.0367    1.5829    0.0993 C.3       1 <0>        -0.1171
     19 H2         -0.5163    1.9500   -0.8080 H         1 <0>         0.1122
     20 C12         1.3663    2.1590    0.1567 C.3       1 <0>         0.1023
     21 C13        -0.8868    2.0306    1.2803 C.3       1 <0>         0.1166
     22 N3         -0.4610    1.3402    2.5033 N.am      1 <0>        -0.6113
     23 C14        -0.3240   -0.1248    2.4724 C.3       1 <0>         0.1072
     24 C15        -0.2007    2.0326    3.6300 C.2       1 <0>         0.5205
     25 O4         -0.3178    3.2397    3.6407 O.2       1 <0>        -0.5010
     26 C16         0.2360    1.3069    4.8765 C.3       1 <0>         0.0418
     27 O5          0.4491    2.2513    5.9275 O.3       1 <0>        -0.2876
     28 C17         0.8494    1.7576    7.1288 C.ar      1 <0>         0.1270
     29 C18         1.0278    0.3918    7.2941 C.ar      1 <0>        -0.2137
     30 C19         1.4399   -0.1071    8.5147 C.ar      1 <0>        -0.0792
     31 C20         1.6643    0.7527    9.5740 C.ar      1 <0>        -0.1548
     32 C21         1.4817    2.1138    9.4134 C.ar      1 <0>        -0.0766
     33 C22         1.0748    2.6181    8.1934 C.ar      1 <0>        -0.1456
     34 H3          6.1984   -2.1554    7.7510 H         1 <0>         0.0654
     35 H4          5.6224   -0.6478    7.0003 H         1 <0>         0.0606
     36 H5          4.4676   -1.7426    7.7979 H         1 <0>         0.0607
     37 H6          4.9234   -3.4735    6.0819 H         1 <0>         0.0800
     38 H7          6.0782   -2.3787    5.2843 H         1 <0>         0.0827
     39 H8          4.2600   -0.7353    4.9078 H         1 <0>         0.1369
     40 H9          3.1052   -1.8301    5.7054 H         1 <0>         0.1383
     41 H10         1.7325   -2.1714    2.5803 H         1 <0>         0.4239
     42 H11         4.8597   -0.4306    3.1915 H         1 <0>         0.1443
     43 H12         5.2720    1.8957    2.5073 H         1 <0>         0.1628
     44 H13        -0.9743   -0.3469   -0.1132 H         1 <0>         0.0915
     45 H14         0.6562   -0.2374   -0.8251 H         1 <0>         0.0836
     46 H15         1.8231    2.0745   -0.8294 H         1 <0>         0.0880
     47 H16         1.3041    3.2135    0.4255 H         1 <0>         0.1053
     48 H17        -0.7774    3.1065    1.4164 H         1 <0>         0.1012
     49 H18        -1.9329    1.7989    1.0805 H         1 <0>         0.0819
     50 H19        -1.2967   -0.5844    2.2969 H         1 <0>         0.0985
     51 H20         0.0884   -0.4797    3.4168 H         1 <0>         0.0887
     52 H21        -0.5378    0.5995    5.1749 H         1 <0>         0.0940
     53 H22         1.1630    0.7690    4.6779 H         1 <0>         0.0888
     54 H23         0.8486   -0.2806    6.4681 H         1 <0>         0.1228
     55 H24         1.5825   -1.1699    8.6428 H         1 <0>         0.1259
     56 H25         1.9824    0.3604   10.5286 H         1 <0>         0.1256
     57 H26         1.6576    2.7833   10.2424 H         1 <0>         0.1318
     58 H27         0.9319    3.6813    8.0685 H         1 <0>         0.1331
@<TRIPOS>BOND
     1    1    2 1
     2    1   34 1
     3    1   35 1
     4    1   36 1
     5    2    3 1
     6    2   37 1
     7    2   38 1
     8    3    4 1
     9    3   39 1
    10    3   40 1
    11    4    5 2
    12    4    6 2
    13    4    7 1
    14    7    8 1
    15    7   41 1
    16    8   14 2
    17    8    9 1
    18    9   10 2
    19    9   42 1
    20   10   11 1
    21   10   43 1
    22   11   12 2
    23   11   13 am
    24   13   20 1
    25   13   14 1
    26   14   15 1
    27   15   16 1
    28   15   23 1
    29   15   17 1
    30   17   18 1
    31   17   44 1
    32   17   45 1
    33   18   19 1
    34   18   20 1
    35   18   21 1
    36   20   46 1
    37   20   47 1
    38   21   22 1
    39   21   48 1
    40   21   49 1
    41   22   23 1
    42   22   24 am
    43   23   50 1
    44   23   51 1
    45   24   25 2
    46   24   26 1
    47   26   27 1
    48   26   52 1
    49   26   53 1
    50   27   28 1
    51   28   33 ar
    52   28   29 ar
    53   29   30 ar
    54   29   54 1
    55   30   31 ar
    56   30   55 1
    57   31   32 ar
    58   31   56 1
    59   32   33 ar
    60   32   57 1
    61   33   58 1
@<TRIPOS>MOLECULE
ZINC14012435
   53    57     0     0     0
SMALL
USER_CHARGES
2-[(4-fluorophenyl)-oxo-BLAHyl]-N-[(2-methoxyphenyl)methyl]acetamide
@<TRIPOS>ATOM
      1 C1          6.3040    5.6384   -6.0679 C.3       1 <0>         0.0254
      2 O1          6.7070    5.0521   -4.8286 O.3       1 <0>        -0.3116
      3 C2          7.8268    4.2822   -4.8455 C.ar      1 <0>         0.1443
      4 C3          8.5258    4.0983   -6.0299 C.ar      1 <0>        -0.2111
      5 C4          9.6609    3.3114   -6.0455 C.ar      1 <0>        -0.0689
      6 C5         10.1029    2.7103   -4.8812 C.ar      1 <0>        -0.1580
      7 C6          9.4106    2.8954   -3.6990 C.ar      1 <0>        -0.0607
      8 C7          8.2752    3.6823   -3.6780 C.ar      1 <0>        -0.1479
      9 C8          7.5210    3.8837   -2.3889 C.3       1 <0>         0.1731
     10 N1          6.3561    2.9958   -2.3608 N.am      1 <0>        -0.7168
     11 C9          5.5288    3.0029   -1.2969 C.2       1 <0>         0.5231
     12 O2          5.7487    3.7444   -0.3627 O.2       1 <0>        -0.5365
     13 C10         4.3305    2.0895   -1.2680 C.3       1 <0>        -0.1607
     14 C11         3.4830    2.3989   -0.0323 C.3       1 <0>         0.1335
     15 H1          4.1147    2.3032    0.8508 H         1 <0>         0.1272
     16 C12         2.9999    3.8530   -0.1250 C.3       1 <0>        -0.0901
     17 S1          1.1841    3.6250   -0.0782 S.3       1 <0>         0.0099
     18 C13         1.1188    1.8498    0.0462 C.2       1 <0>         0.4240
     19 N2          2.4109    1.4081    0.0547 N.am      1 <0>        -0.5573
     20 C14         2.6130    0.0535    0.1449 C.2       1 <0>         0.5872
     21 O3          3.7456   -0.3953    0.1570 O.2       1 <0>        -0.5105
     22 C15         1.5062   -0.8182    0.2241 C.2       1 <0>        -0.3450
     23 C16         1.3617   -2.2189    0.3235 C.2       1 <0>         0.1494
     24 N3          0.0897   -2.5017    0.3648 N.2       1 <0>        -0.2608
     25 N4         -0.6564   -1.3186    0.2957 N.pl3     1 <0>        -0.3029
     26 C17         0.2113   -0.2733    0.2086 C.2       1 <0>         0.3678
     27 N5          0.0761    1.0534    0.1191 N.2       1 <0>        -0.5060
     28 C18        -2.0546   -1.2266    0.3140 C.ar      1 <0>         0.1325
     29 C19        -2.6727   -0.1564    0.9472 C.ar      1 <0>        -0.0789
     30 C20        -4.0506   -0.0643    0.9587 C.ar      1 <0>        -0.1329
     31 C21        -4.8161   -1.0448    0.3500 C.ar      1 <0>         0.1060
     32 C22        -4.2018   -2.1158   -0.2770 C.ar      1 <0>        -0.1371
     33 C23        -2.8240   -2.2084   -0.2961 C.ar      1 <0>        -0.0745
     34 F1         -6.1641   -0.9560    0.3676 F         1 <0>        -0.1320
     35 H2          6.1070    4.8509   -6.7953 H         1 <0>         0.0567
     36 H3          5.3989    6.2261   -5.9144 H         1 <0>         0.1023
     37 H4          7.0987    6.2855   -6.4392 H         1 <0>         0.0573
     38 H5          8.1808    4.5674   -6.9395 H         1 <0>         0.1307
     39 H6         10.2035    3.1653   -6.9678 H         1 <0>         0.1276
     40 H7         10.9902    2.0948   -4.8956 H         1 <0>         0.1279
     41 H8          9.7578    2.4248   -2.7911 H         1 <0>         0.1326
     42 H9          7.1898    4.9199   -2.3198 H         1 <0>         0.0820
     43 H10         8.1734    3.6539   -1.5465 H         1 <0>         0.0782
     44 H11         6.1802    2.4028   -3.1080 H         1 <0>         0.4028
     45 H12         4.6647    1.0528   -1.2291 H         1 <0>         0.1249
     46 H13         3.7332    2.2452   -2.1664 H         1 <0>         0.1026
     47 H14         3.3442    4.4360    0.7292 H         1 <0>         0.1430
     48 H15         3.3136    4.3116   -1.0627 H         1 <0>         0.1316
     49 H16         2.1689   -2.9355    0.3598 H         1 <0>         0.2075
     50 H17        -2.0761    0.6059    1.4261 H         1 <0>         0.1457
     51 H18        -4.5316    0.7706    1.4465 H         1 <0>         0.1490
     52 H19        -4.8005   -2.8791   -0.7517 H         1 <0>         0.1483
     53 H20        -2.3453   -3.0437   -0.7855 H         1 <0>         0.1461
@<TRIPOS>BOND
     1    1    2 1
     2    1   35 1
     3    1   36 1
     4    1   37 1
     5    2    3 1
     6    3    8 ar
     7    3    4 ar
     8    4    5 ar
     9    4   38 1
    10    5    6 ar
    11    5   39 1
    12    6    7 ar
    13    6   40 1
    14    7    8 ar
    15    7   41 1
    16    8    9 1
    17    9   10 1
    18    9   42 1
    19    9   43 1
    20   10   11 am
    21   10   44 1
    22   11   12 2
    23   11   13 1
    24   13   14 1
    25   13   45 1
    26   13   46 1
    27   14   15 1
    28   14   19 1
    29   14   16 1
    30   16   17 1
    31   16   47 1
    32   16   48 1
    33   17   18 1
    34   18   27 2
    35   18   19 1
    36   19   20 am
    37   20   21 2
    38   20   22 1
    39   22   26 2
    40   22   23 1
    41   23   24 2
    42   23   49 1
    43   24   25 1
    44   25   26 1
    45   25   28 1
    46   26   27 1
    47   28   33 ar
    48   28   29 ar
    49   29   30 ar
    50   29   50 1
    51   30   31 ar
    52   30   51 1
    53   31   32 ar
    54   31   34 1
    55   32   33 ar
    56   32   52 1
    57   33   53 1
@<TRIPOS>MOLECULE
ZINC21882051
   48    50     0     0     0
SMALL
USER_CHARGES
methyl 4-[(2S)-2-[(2-chloro-4-fluoro-phenyl)carbamoyl]pyrrolidin-1-yl]sulfonyl-1-methyl-pyrrole-2-carboxylate
@<TRIPOS>ATOM
      1 C1          0.2634    4.2594    0.0675 C.3       1 <0>         0.0575
      2 N1          1.3718    3.3017    0.0445 N.pl3     1 <0>        -0.4045
      3 C2          2.6837    3.6177    0.0257 C.2       1 <0>         0.1529
      4 C3          3.4120    2.4754    0.0072 C.2       1 <0>        -0.7657
      5 C4          2.5205    1.3987    0.0207 C.2       1 <0>        -0.0038
      6 C5          1.2472    1.9304    0.0381 C.2       1 <0>        -0.0510
      7 C6         -0.0074    1.1743    0.0533 C.2       1 <0>         0.5374
      8 O1          0.0153   -0.0417    0.0455 O.2       1 <0>        -0.4903
      9 O2         -1.1879    1.8267    0.0704 O.3       1 <0>        -0.3625
     10 C7         -2.3906    1.0132    0.0786 C.3       1 <0>         0.0334
     11 S1          5.1704    2.3663   -0.0213 S.o2      1 <0>         2.7329
     12 O3          5.4898    1.1016   -0.5850 O.2       1 <0>        -0.9465
     13 O4          5.6443    3.5874   -0.5722 O.2       1 <0>        -0.9336
     14 N2          5.6841    2.3263    1.5525 N.pl3     1 <0>        -0.9945
     15 C8          5.8767    1.1099    2.3628 C.3       1 <0>         0.1126
     16 C9          5.7423    1.5858    3.8308 C.3       1 <0>        -0.1293
     17 C10         6.4232    2.9787    3.7703 C.3       1 <0>        -0.1170
     18 C11         6.0295    3.4977    2.3711 C.3       1 <0>         0.1454
     19 H1          5.1670    4.1797    2.4003 H         1 <0>         0.1064
     20 C12         7.1886    4.2334    1.7496 C.2       1 <0>         0.4977
     21 O5          7.6847    3.8251    0.7209 O.2       1 <0>        -0.4846
     22 N3          7.6739    5.3452    2.3369 N.am      1 <0>        -0.6792
     23 C13         8.8220    5.9634    1.8252 C.ar      1 <0>         0.1643
     24 C14         9.7421    5.2245    1.0937 C.ar      1 <0>        -0.0944
     25 C15        10.8733    5.8358    0.5896 C.ar      1 <0>        -0.1223
     26 C16        11.0910    7.1851    0.8133 C.ar      1 <0>         0.0909
     27 C17        10.1753    7.9246    1.5424 C.ar      1 <0>        -0.1238
     28 C18         9.0389    7.3182    2.0440 C.ar      1 <0>        -0.0465
     29 Cl1         7.8872    8.2470    2.9520 Cl        1 <0>        -0.0527
     30 F1         12.1984    7.7807    0.3191 F         1 <0>        -0.1325
     31 H2          0.6640    5.2839    0.0675 H         1 <0>         0.0991
     32 H3         -0.3391    4.1012    0.9742 H         1 <0>         0.0944
     33 H4         -0.3669    4.1121   -0.8219 H         1 <0>         0.0943
     34 H5          3.0878    4.6193    0.0259 H         1 <0>         0.1910
     35 H6          2.7790    0.3501    0.0161 H         1 <0>         0.1679
     36 H7         -3.2753    1.6668    0.0924 H         1 <0>         0.1071
     37 H8         -2.3939    0.3727    0.9729 H         1 <0>         0.0679
     38 H9         -2.4137    0.3839   -0.8233 H         1 <0>         0.0682
     39 H10         5.1057    0.3699    2.1022 H         1 <0>         0.0830
     40 H11         6.8725    0.6885    2.1607 H         1 <0>         0.0761
     41 H12         4.6780    1.6341    4.1046 H         1 <0>         0.0821
     42 H13         6.2599    0.8777    4.4947 H         1 <0>         0.0906
     43 H14         6.0343    3.6124    4.5810 H         1 <0>         0.0964
     44 H15         7.5106    2.8606    3.8867 H         1 <0>         0.0878
     45 H16         7.1684    5.7671    3.2181 H         1 <0>         0.4372
     46 H17         9.5735    4.1721    0.9194 H         1 <0>         0.1640
     47 H18        11.5890    5.2610    0.0206 H         1 <0>         0.1464
     48 H19        10.3468    8.9768    1.7154 H         1 <0>         0.1498
@<TRIPOS>BOND
     1    1    2 1
     2    1   31 1
     3    1   32 1
     4    1   33 1
     5    2    6 1
     6    2    3 1
     7    3    4 2
     8    3   34 1
     9    4    5 1
    10    4   11 1
    11    5    6 2
    12    5   35 1
    13    6    7 1
    14    7    8 2
    15    7    9 1
    16    9   10 1
    17   10   36 1
    18   10   37 1
    19   10   38 1
    20   11   12 2
    21   11   13 2
    22   11   14 1
    23   14   18 1
    24   14   15 1
    25   15   16 1
    26   15   39 1
    27   15   40 1
    28   16   17 1
    29   16   41 1
    30   16   42 1
    31   17   18 1
    32   17   43 1
    33   17   44 1
    34   18   19 1
    35   18   20 1
    36   20   21 2
    37   20   22 am
    38   22   23 1
    39   22   45 1
    40   23   28 ar
    41   23   24 ar
    42   24   25 ar
    43   24   46 1
    44   25   26 ar
    45   25   47 1
    46   26   27 ar
    47   26   30 1
    48   27   28 ar
    49   27   48 1
    50   28   29 1
@<TRIPOS>MOLECULE
ZINC35494274
   57    61     0     0     0
SMALL
USER_CHARGES

@<TRIPOS>ATOM
      1 C1         -1.8688    0.1207    1.6837 C.3       1 <0>        -0.0913
      2 C2         -0.8551   -0.8867    1.2055 C.2       1 <0>         0.0793
      3 C3         -0.9608   -1.6626    0.1020 C.2       1 <0>        -0.2582
      4 C4          0.1901   -2.4534    0.0202 C.2       1 <0>         0.0698
      5 N1          0.9590   -2.1627    1.0380 N.2       1 <0>        -0.2833
      6 N2          0.3233   -1.1723    1.7979 N.pl3     1 <0>        -0.3759
      7 C5          0.8441   -0.5577    3.0215 C.3       1 <0>         0.1010
      8 C6          0.4918   -3.4661   -1.0543 C.3       1 <0>         0.1433
      9 N3          1.8565   -3.2635   -1.5470 N.am      1 <0>        -0.6506
     10 C7          2.9757   -3.2107   -0.6031 C.3       1 <0>         0.1988
     11 C8          3.5255   -4.5987   -0.3978 C.2       1 <0>        -0.0081
     12 C9          4.5732   -5.1375   -1.0543 C.2       1 <0>        -0.0164
     13 N4          4.7402   -6.4067   -0.5696 N.pl3     1 <0>        -0.5640
     14 H1          5.4152   -7.0458   -0.8465 H         1 <0>         0.4181
     15 C10         3.7778   -6.6020    0.3774 C.2       1 <0>         0.2362
     16 N5          3.0611   -5.5041    0.4708 N.2       1 <0>        -0.4506
     17 C11         3.5786   -7.8361    1.1680 C.ar      1 <0>        -0.0089
     18 C12         4.4206   -8.9326    0.9792 C.ar      1 <0>        -0.1146
     19 C13         4.2297  -10.0807    1.7202 C.ar      1 <0>        -0.1161
     20 C14         3.2063  -10.1462    2.6487 C.ar      1 <0>        -0.1135
     21 C15         2.3680   -9.0624    2.8407 C.ar      1 <0>        -0.1168
     22 C16         2.5515   -7.9066    2.1099 C.ar      1 <0>        -0.0790
     23 C17         2.0824   -3.1256   -2.8685 C.2       1 <0>         0.6181
     24 O1          2.8107   -3.9099   -3.4460 O.2       1 <0>        -0.4766
     25 C18         1.4472   -2.0253   -3.6132 C.2       1 <0>        -0.2728
     26 C19         2.1334   -1.3320   -4.6011 C.2       1 <0>         0.0588
     27 C20         1.4657   -0.2634   -5.2531 C.ar      1 <0>        -0.1633
     28 C21         2.0272    0.3405   -6.3875 C.ar      1 <0>        -0.0450
     29 C22         1.3524    1.3395   -7.0282 C.ar      1 <0>        -0.1417
     30 C23         0.1174    1.7692   -6.5623 C.ar      1 <0>        -0.0535
     31 C24        -0.4446    1.2031   -5.4368 C.ar      1 <0>        -0.1347
     32 C25         0.2263    0.1904   -4.7646 C.ar      1 <0>         0.1485
     33 O2         -0.2949   -0.3439   -3.6340 O.3       1 <0>        -0.2656
     34 C26         0.0556   -1.6204   -3.3435 C.2       1 <0>         0.5273
     35 O3         -0.7475   -2.4044   -2.8734 O.2       1 <0>        -0.4109
     36 H2         -1.6544    1.0918    1.2375 H         1 <0>         0.0780
     37 H3         -2.8678   -0.2016    1.3899 H         1 <0>         0.0856
     38 H4         -1.8175    0.2005    2.7695 H         1 <0>         0.0687
     39 H5         -1.7877   -1.6703   -0.5926 H         1 <0>         0.1476
     40 H6          0.5146   -1.1338    3.8862 H         1 <0>         0.0731
     41 H7          1.9335   -0.5456    2.9867 H         1 <0>         0.0877
     42 H8          0.4718    0.4636    3.1020 H         1 <0>         0.0839
     43 H9          0.3996   -4.4711   -0.6426 H         1 <0>         0.0782
     44 H10        -0.2132   -3.3443   -1.8767 H         1 <0>         0.1675
     45 H11         3.7580   -2.5655   -1.0029 H         1 <0>         0.0733
     46 H12         2.6284   -2.8127    0.3503 H         1 <0>         0.1282
     47 H13         5.1675   -4.6585   -1.8183 H         1 <0>         0.1759
     48 H14         5.2196   -8.8829    0.2543 H         1 <0>         0.1164
     49 H15         4.8805  -10.9303    1.5747 H         1 <0>         0.1265
     50 H16         3.0608  -11.0473    3.2260 H         1 <0>         0.1253
     51 H17         1.5706   -9.1199    3.5669 H         1 <0>         0.1283
     52 H18         1.8990   -7.0598    2.2635 H         1 <0>         0.1361
     53 H19         3.1462   -1.5982   -4.8654 H         1 <0>         0.1604
     54 H20         2.9905    0.0165   -6.7529 H         1 <0>         0.1428
     55 H21         1.7834    1.7998   -7.9050 H         1 <0>         0.1386
     56 H22        -0.4082    2.5542   -7.0856 H         1 <0>         0.1432
     57 H23        -1.4041    1.5468   -5.0795 H         1 <0>         0.1472
@<TRIPOS>BOND
     1    1    2 1
     2    1   36 1
     3    1   37 1
     4    1   38 1
     5    2    6 1
     6    2    3 2
     7    3    4 1
     8    3   39 1
     9    4    5 2
    10    4    8 1
    11    5    6 1
    12    6    7 1
    13    7   40 1
    14    7   41 1
    15    7   42 1
    16    8    9 1
    17    8   43 1
    18    8   44 1
    19    9   10 1
    20    9   23 am
    21   10   11 1
    22   10   45 1
    23   10   46 1
    24   11   16 1
    25   11   12 2
    26   12   13 1
    27   12   47 1
    28   13   14 1
    29   13   15 1
    30   15   16 2
    31   15   17 1
    32   17   22 ar
    33   17   18 ar
    34   18   19 ar
    35   18   48 1
    36   19   20 ar
    37   19   49 1
    38   20   21 ar
    39   20   50 1
    40   21   22 ar
    41   21   51 1
    42   22   52 1
    43   23   24 2
    44   23   25 1
    45   25   34 1
    46   25   26 2
    47   26   27 1
    48   26   53 1
    49   27   32 ar
    50   27   28 ar
    51   28   29 ar
    52   28   54 1
    53   29   30 ar
    54   29   55 1
    55   30   31 ar
    56   30   56 1
    57   31   32 ar
    58   31   57 1
    59   32   33 1
    60   33   34 1
    61   34   35 2
@<TRIPOS>MOLECULE
ZINC49400323
   59    62     0     0     0
SMALL
USER_CHARGES

@<TRIPOS>ATOM
      1 C1         -3.0142   -2.5282    2.1173 C.3       1 <0>        -0.1456
      2 C2         -1.5894   -1.9955    2.2822 C.3       1 <0>        -0.1072
      3 H1         -1.2088   -2.2728    3.2652 H         1 <0>         0.0761
      4 C3         -1.5953   -0.4711    2.1480 C.3       1 <0>        -0.1129
      5 C4         -0.1757    0.0656    2.3453 C.3       1 <0>        -0.1052
      6 H2          0.1921   -0.2311    3.3276 H         1 <0>         0.0746
      7 C5          0.7395   -0.5117    1.2609 C.3       1 <0>         0.1057
      8 N1          0.6392   -1.9773    1.2884 N.pl3     1 <0>        -0.5698
      9 C6         -0.6901   -2.5969    1.1976 C.3       1 <0>         0.1251
     10 C7          1.7750   -2.7597    1.3978 C.2       1 <0>         0.4759
     11 C8          3.1094   -2.1474    1.3676 C.2       1 <0>         0.2447
     12 N2          3.5270   -0.9149    1.2494 N.2       1 <0>        -0.2459
     13 N3          4.9291   -0.9295    1.2858 N.am      1 <0>        -0.4204
     14 C9          5.3197   -2.2131    1.4294 C.2       1 <0>         0.6577
     15 O1          6.4701   -2.6099    1.5000 O.2       1 <0>        -0.5322
     16 N4          4.2136   -2.9764    1.4815 N.am      1 <0>        -0.4575
     17 C10         4.0100   -4.3356    1.6178 C.2       1 <0>        -0.0030
     18 C11         2.7678   -4.8390    1.6391 C.2       1 <0>         0.0633
     19 N5          1.6779   -4.0650    1.5363 N.2       1 <0>        -0.5283
     20 C12         5.8095    0.2372    1.1860 C.3       1 <0>         0.1419
     21 C13         6.1461    0.4902   -0.2610 C.2       1 <0>         0.4970
     22 O2          5.6949   -0.2328   -1.1239 O.2       1 <0>        -0.5196
     23 N6          6.9485    1.5199   -0.5962 N.am      1 <0>        -0.7223
     24 C14         7.2757    1.7659   -2.0028 C.3       1 <0>         0.1647
     25 C15         8.1814    2.9659   -2.1055 C.ar      1 <0>        -0.1182
     26 C16         7.6382    4.2302   -2.2446 C.ar      1 <0>        -0.0783
     27 C17         8.4650    5.3321   -2.3394 C.ar      1 <0>        -0.1015
     28 C18         9.8445    5.1695   -2.2945 C.ar      1 <0>        -0.0731
     29 C19        10.3867    3.8976   -2.1541 C.ar      1 <0>        -0.1359
     30 C20         9.5536    2.8009   -2.0547 C.ar      1 <0>        -0.0776
     31 S1         10.9035    6.5725   -2.4157 S.3       1 <0>        -0.1138
     32 C21        12.5735    5.8722   -2.3099 C.3       1 <0>        -0.1456
     33 C22        -0.1882    1.5922    2.2444 C.3       1 <0>        -0.1452
     34 H3         -3.0094   -3.6141    2.2119 H         1 <0>         0.0598
     35 H4         -3.6539   -2.0992    2.8886 H         1 <0>         0.0598
     36 H5         -3.3943   -2.2507    1.1342 H         1 <0>         0.0576
     37 H6         -1.9531   -0.1952    1.1560 H         1 <0>         0.0667
     38 H7         -2.2538   -0.0425    2.9035 H         1 <0>         0.0685
     39 H8          0.4269   -0.1423    0.2842 H         1 <0>         0.0747
     40 H9          1.7695   -0.2123    1.4546 H         1 <0>         0.1120
     41 H10        -0.6035   -3.6727    1.3497 H         1 <0>         0.1040
     42 H11        -1.1191   -2.3979    0.2155 H         1 <0>         0.0714
     43 H12         4.8582   -4.9981    1.7077 H         1 <0>         0.1723
     44 H13         2.6403   -5.9060    1.7465 H         1 <0>         0.1798
     45 H14         5.3044    1.1100    1.5995 H         1 <0>         0.1332
     46 H15         6.7264    0.0493    1.7448 H         1 <0>         0.1319
     47 H16         7.3093    2.0981    0.0940 H         1 <0>         0.4045
     48 H17         7.7808    0.8930   -2.4164 H         1 <0>         0.0785
     49 H18         6.3588    1.9538   -2.5616 H         1 <0>         0.0799
     50 H19         6.5661    4.3558   -2.2795 H         1 <0>         0.1313
     51 H20         8.0402    6.3190   -2.4488 H         1 <0>         0.1316
     52 H21        11.4582    3.7675   -2.1188 H         1 <0>         0.1263
     53 H22         9.9741    1.8126   -1.9415 H         1 <0>         0.1286
     54 H23        12.6895    5.3511   -1.3596 H         1 <0>         0.0853
     55 H24        12.7259    5.1706   -3.1300 H         1 <0>         0.0854
     56 H25        13.3087    6.6742   -2.3765 H         1 <0>         0.1116
     57 H26        -0.8416    2.0019    3.0146 H         1 <0>         0.0607
     58 H27         0.8230    1.9739    2.3850 H         1 <0>         0.0586
     59 H28        -0.5550    1.8883    1.2616 H         1 <0>         0.0583
@<TRIPOS>BOND
     1    1    2 1
     2    1   34 1
     3    1   35 1
     4    1   36 1
     5    2    3 1
     6    2    9 1
     7    2    4 1
     8    4    5 1
     9    4   37 1
    10    4   38 1
    11    5    6 1
    12    5    7 1
    13    5   33 1
    14    7    8 1
    15    7   39 1
    16    7   40 1
    17    8    9 1
    18    8   10 1
    19    9   41 1
    20    9   42 1
    21   10   19 2
    22   10   11 1
    23   11   16 1
    24   11   12 2
    25   12   13 1
    26   13   14 am
    27   13   20 1
    28   14   15 2
    29   14   16 am
    30   16   17 1
    31   17   18 2
    32   17   43 1
    33   18   19 1
    34   18   44 1
    35   20   21 1
    36   20   45 1
    37   20   46 1
    38   21   22 2
    39   21   23 am
    40   23   24 1
    41   23   47 1
    42   24   25 1
    43   24   48 1
    44   24   49 1
    45   25   30 ar
    46   25   26 ar
    47   26   27 ar
    48   26   50 1
    49   27   28 ar
    50   27   51 1
    51   28   29 ar
    52   28   31 1
    53   29   30 ar
    54   29   52 1
    55   30   53 1
    56   31   32 1
    57   32   54 1
    58   32   55 1
    59   32   56 1
    60   33   57 1
    61   33   58 1
    62   33   59 1
@<TRIPOS>MOLECULE
ZINC01462420
   52    55     0     0     0
SMALL
USER_CHARGES
N-(4-chlorophenyl)-N-[(4-hydroxy-3-methoxy-phenyl)methyl]-2-(7,7,9-trioxo-7$l^{6}-thia-8-azabicyclo[4.3.0]nona-2,4,10-trien-8-yl)-acetamide
@<TRIPOS>ATOM
      1 C1         -2.6479   -7.4236   -2.5994 C.3       1 <0>         0.0255
      2 O1         -1.3756   -7.1090   -3.1688 O.3       1 <0>        -0.3067
      3 C2         -1.1158   -5.7965   -3.4124 C.ar      1 <0>         0.0993
      4 C3         -2.0647   -4.8330   -3.1100 C.ar      1 <0>        -0.1748
      5 C4         -1.7988   -3.4993   -3.3579 C.ar      1 <0>        -0.0858
      6 C5         -0.5894   -3.1238   -3.9127 C.ar      1 <0>        -0.1140
      7 C6          0.3639   -4.0794   -4.2115 C.ar      1 <0>        -0.1078
      8 C7          0.1037   -5.4181   -3.9655 C.ar      1 <0>         0.0831
      9 O2          1.0380   -6.3600   -4.2644 O.3       1 <0>        -0.4864
     10 C8         -2.8319   -2.4528   -3.0284 C.3       1 <0>         0.1566
     11 N1         -2.6321   -1.9848   -1.6546 N.am      1 <0>        -0.5627
     12 C9         -3.2840   -2.6262   -0.5950 C.ar      1 <0>         0.1261
     13 C10        -2.5512   -3.3487    0.3373 C.ar      1 <0>        -0.1159
     14 C11        -3.1964   -3.9762    1.3849 C.ar      1 <0>        -0.0928
     15 C12        -4.5731   -3.8950    1.4995 C.ar      1 <0>        -0.0325
     16 C13        -5.3062   -3.1800    0.5688 C.ar      1 <0>        -0.0936
     17 C14        -4.6654   -2.5459   -0.4775 C.ar      1 <0>        -0.1022
     18 Cl1        -5.3817   -4.6909    2.8134 Cl        1 <0>        -0.0585
     19 C15        -1.8205   -0.9368   -1.4111 C.2       1 <0>         0.5057
     20 O3         -1.3306   -0.3217   -2.3346 O.2       1 <0>        -0.4916
     21 C16        -1.5217   -0.5290    0.0086 C.3       1 <0>         0.1222
     22 N2         -0.7232    0.6992    0.0062 N.am      1 <0>        -0.9095
     23 C17        -1.1743    1.9606   -0.0675 C.2       1 <0>         0.5430
     24 O4         -2.3644    2.1946   -0.1482 O.2       1 <0>        -0.4593
     25 C18        -0.1899    3.0511   -0.0542 C.ar      1 <0>        -0.1110
     26 C19        -0.3812    4.4421   -0.1184 C.ar      1 <0>        -0.0351
     27 C20         0.6988    5.2943   -0.0906 C.ar      1 <0>        -0.0795
     28 C21         1.9898    4.8043    0.0006 C.ar      1 <0>        -0.0914
     29 C22         2.1979    3.4342    0.0649 C.ar      1 <0>         0.0060
     30 C23         1.1282    2.5850    0.0375 C.ar      1 <0>        -0.6149
     31 S1          0.9428    0.8237    0.0948 S.o2      1 <0>         2.6500
     32 O5          1.3403    0.3894    1.3881 O.2       1 <0>        -0.9176
     33 O6          1.4802    0.2935   -1.1091 O.2       1 <0>        -0.9014
     34 H1         -2.7497   -6.9214   -1.6374 H         1 <0>         0.0553
     35 H2         -3.4391   -7.0880   -3.2699 H         1 <0>         0.0550
     36 H3         -2.7256   -8.5014   -2.4566 H         1 <0>         0.1022
     37 H4         -3.0121   -5.1242   -2.6810 H         1 <0>         0.1313
     38 H5         -0.3873   -2.0813   -4.1092 H         1 <0>         0.1365
     39 H6          1.3094   -3.7831   -4.6410 H         1 <0>         0.1388
     40 H7          0.9662   -6.7145   -5.1612 H         1 <0>         0.3883
     41 H8         -3.8287   -2.8835   -3.1242 H         1 <0>         0.0936
     42 H9         -2.7312   -1.6135   -3.7165 H         1 <0>         0.1057
     43 H10        -1.4772   -3.4162    0.2458 H         1 <0>         0.1375
     44 H11        -2.6264   -4.5343    2.1130 H         1 <0>         0.1433
     45 H12        -6.3805   -3.1175    0.6608 H         1 <0>         0.1424
     46 H13        -5.2380   -1.9877   -1.2034 H         1 <0>         0.1405
     47 H14        -0.9648   -1.3235    0.5052 H         1 <0>         0.1285
     48 H15        -2.4568   -0.3535    0.5406 H         1 <0>         0.1332
     49 H16        -1.3810    4.8442   -0.1902 H         1 <0>         0.1480
     50 H17         0.5367    6.3609   -0.1410 H         1 <0>         0.1485
     51 H18         2.8292    5.4835    0.0212 H         1 <0>         0.1509
     52 H19         3.2011    3.0407    0.1366 H         1 <0>         0.1480
@<TRIPOS>BOND
     1    1    2 1
     2    1   34 1
     3    1   35 1
     4    1   36 1
     5    2    3 1
     6    3    8 ar
     7    3    4 ar
     8    4    5 ar
     9    4   37 1
    10    5    6 ar
    11    5   10 1
    12    6    7 ar
    13    6   38 1
    14    7    8 ar
    15    7   39 1
    16    8    9 1
    17    9   40 1
    18   10   11 1
    19   10   41 1
    20   10   42 1
    21   11   12 1
    22   11   19 am
    23   12   17 ar
    24   12   13 ar
    25   13   14 ar
    26   13   43 1
    27   14   15 ar
    28   14   44 1
    29   15   16 ar
    30   15   18 1
    31   16   17 ar
    32   16   45 1
    33   17   46 1
    34   19   20 2
    35   19   21 1
    36   21   22 1
    37   21   47 1
    38   21   48 1
    39   22   31 1
    40   22   23 am
    41   23   24 2
    42   23   25 1
    43   25   30 ar
    44   25   26 ar
    45   26   27 ar
    46   26   49 1
    47   27   28 ar
    48   27   50 1
    49   28   29 ar
    50   28   51 1
    51   29   30 ar
    52   29   52 1
    53   30   31 1
    54   31   32 2
    55   31   33 2
@<TRIPOS>MOLECULE
ZINC09661907
   52    55     0     0     0
SMALL
USER_CHARGES
N-[2-[5-[(2-chlorophenyl)methylene]-2,4-dioxo-thiazolidin-3-yl]ethyl]-6-oxo-1-phenyl-4,5-dihydropyridazine-3-carboxamide
@<TRIPOS>ATOM
      1 C1         -8.8048   -2.3314    4.3363 C.ar      1 <0>        -0.1129
      2 C2         -9.5417   -2.4882    3.1766 C.ar      1 <0>        -0.1066
      3 C3         -8.8993   -2.6738    1.9683 C.ar      1 <0>        -0.1000
      4 C4         -7.5116   -2.7024    1.9184 C.ar      1 <0>         0.1432
      5 C5         -6.7745   -2.5494    3.0856 C.ar      1 <0>        -0.1044
      6 C6         -7.4230   -2.3594    4.2901 C.ar      1 <0>        -0.1099
      7 N1         -6.8573   -2.8908    0.6952 N.am      1 <0>        -0.4095
      8 C7         -7.1714   -3.9502   -0.0760 C.2       1 <0>         0.4968
      9 O1         -8.0144   -4.7409    0.2905 O.2       1 <0>        -0.4929
     10 C8         -6.4706   -4.1491   -1.3960 C.3       1 <0>        -0.1398
     11 C9         -6.1547   -2.7788   -2.0080 C.3       1 <0>        -0.1083
     12 C10        -5.5236   -1.8975   -0.9633 C.2       1 <0>         0.0845
     13 N2         -5.8813   -1.9786    0.2813 N.2       1 <0>        -0.2012
     14 C11        -4.4944   -0.9296   -1.3588 C.2       1 <0>         0.5840
     15 O2         -4.1529   -0.8466   -2.5236 O.2       1 <0>        -0.5112
     16 N3         -3.9273   -0.1323   -0.4318 N.am      1 <0>        -0.7060
     17 C12        -2.8996    0.8342   -0.8267 C.3       1 <0>         0.1054
     18 C13        -2.4253    1.6065    0.4059 C.3       1 <0>         0.0806
     19 N4         -1.3976    2.5730    0.0110 N.am      1 <0>        -0.5744
     20 C14        -1.7614    3.7932   -0.3462 C.2       1 <0>         0.5584
     21 O3         -2.9295    4.1339   -0.3603 O.2       1 <0>        -0.4589
     22 C15        -0.6773    4.7200   -0.7333 C.2       1 <0>        -0.2087
     23 C16        -0.7481    6.0121   -1.1390 C.2       1 <0>         0.0744
     24 C17         0.4774    6.8155   -1.2504 C.ar      1 <0>        -0.0885
     25 C18         1.6430    6.4169   -0.5864 C.ar      1 <0>        -0.0803
     26 C19         2.7897    7.1731   -0.7003 C.ar      1 <0>        -0.1121
     27 C20         2.7883    8.3306   -1.4602 C.ar      1 <0>        -0.0795
     28 C21         1.6395    8.7357   -2.1160 C.ar      1 <0>        -0.1121
     29 C22         0.4838    7.9874   -2.0170 C.ar      1 <0>        -0.0031
     30 Cl1        -0.9572    8.4977   -2.8397 Cl        1 <0>        -0.0500
     31 S1          0.7531    3.6690   -0.5210 S.3       1 <0>        -0.0352
     32 C23        -0.1023    2.1979    0.0196 C.2       1 <0>         0.5390
     33 O4          0.3692    1.1183    0.3221 O.2       1 <0>        -0.4090
     34 H1         -9.3095   -2.1864    5.2800 H         1 <0>         0.1289
     35 H2        -10.6207   -2.4658    3.2160 H         1 <0>         0.1313
     36 H3         -9.4753   -2.7962    1.0630 H         1 <0>         0.1243
     37 H4         -5.6954   -2.5756    3.0508 H         1 <0>         0.1294
     38 H5         -6.8503   -2.2366    5.1975 H         1 <0>         0.1312
     39 H6         -5.5452   -4.7028   -1.2372 H         1 <0>         0.1130
     40 H7         -7.1184   -4.7075   -2.0717 H         1 <0>         0.1256
     41 H8         -7.0745   -2.3160   -2.3657 H         1 <0>         0.1058
     42 H9         -5.4641   -2.9048   -2.8419 H         1 <0>         0.1208
     43 H10        -4.1996   -0.1985    0.4968 H         1 <0>         0.4134
     44 H11        -3.3165    1.5310   -1.5539 H         1 <0>         0.0836
     45 H12        -2.0561    0.3062   -1.2716 H         1 <0>         0.0817
     46 H13        -2.0084    0.9097    1.1331 H         1 <0>         0.1092
     47 H14        -3.2688    2.1344    0.8507 H         1 <0>         0.1129
     48 H15        -1.7052    6.4506   -1.3802 H         1 <0>         0.1665
     49 H16         1.6452    5.5167    0.0104 H         1 <0>         0.1461
     50 H17         3.6908    6.8644   -0.1913 H         1 <0>         0.1400
     51 H18         3.6891    8.9209   -1.5410 H         1 <0>         0.1409
     52 H19         1.6469    9.6399   -2.7066 H         1 <0>         0.1432
@<TRIPOS>BOND
     1    1    6 ar
     2    1    2 ar
     3    1   34 1
     4    2    3 ar
     5    2   35 1
     6    3    4 ar
     7    3   36 1
     8    4    5 ar
     9    4    7 1
    10    5    6 ar
    11    5   37 1
    12    6   38 1
    13    7   13 1
    14    7    8 am
    15    8    9 2
    16    8   10 1
    17   10   11 1
    18   10   39 1
    19   10   40 1
    20   11   12 1
    21   11   41 1
    22   11   42 1
    23   12   13 2
    24   12   14 1
    25   14   15 2
    26   14   16 am
    27   16   17 1
    28   16   43 1
    29   17   18 1
    30   17   44 1
    31   17   45 1
    32   18   19 1
    33   18   46 1
    34   18   47 1
    35   19   32 am
    36   19   20 am
    37   20   21 2
    38   20   22 1
    39   22   23 2
    40   22   31 1
    41   23   24 1
    42   23   48 1
    43   24   29 ar
    44   24   25 ar
    45   25   26 ar
    46   25   49 1
    47   26   27 ar
    48   26   50 1
    49   27   28 ar
    50   27   51 1
    51   28   29 ar
    52   28   52 1
    53   29   30 1
    54   31   32 1
    55   32   33 2
@<TRIPOS>MOLECULE
ZINC21655462
   55    58     0     0     0
SMALL
USER_CHARGES
N-[2-(4-chlorophenyl)ethyl]-2-(6-ethyl-5,7-dioxo-2-pyrrolidin-1-yl-thiazolo[5,4-e]pyrimidin-4-yl)acetamide
@<TRIPOS>ATOM
      1 C1         -2.6834   -0.7289   -9.2729 C.3       1 <0>        -0.1681
      2 C2         -3.2775    0.2316   -8.2408 C.3       1 <0>         0.1094
      3 N1         -2.2173    1.0883   -7.7039 N.am      1 <0>        -0.5473
      4 C3         -1.9313    2.2678   -8.3021 C.2       1 <0>         0.6086
      5 O1         -2.5500    2.6271   -9.2887 O.2       1 <0>        -0.5038
      6 C4         -0.9204    3.0634   -7.7743 C.2       1 <0>        -0.3762
      7 C5         -0.1913    2.6787   -6.6430 C.2       1 <0>         0.4174
      8 N2          0.7420    3.5359   -6.2525 N.2       1 <0>        -0.5602
      9 C6          0.9688    4.6730   -6.8856 C.2       1 <0>         0.3179
     10 S1         -0.1938    4.6312   -8.1762 S.3       1 <0>         0.1882
     11 N3          1.8959    5.6491   -6.5946 N.pl3     1 <0>        -0.4089
     12 C7          3.2792    5.1191   -6.7044 C.3       1 <0>         0.0411
     13 C8          4.1365    6.3984   -6.8744 C.3       1 <0>        -0.1240
     14 C9          3.2444    7.2972   -7.7611 C.3       1 <0>        -0.1255
     15 C10         1.8133    6.7641   -7.5628 C.3       1 <0>         0.0281
     16 N4         -0.5467    1.4454   -6.0815 N.am      1 <0>        -0.4959
     17 C11        -1.5234    0.7009   -6.6198 C.2       1 <0>         0.7180
     18 O2         -1.7957   -0.3658   -6.1034 O.2       1 <0>        -0.5316
     19 C12         0.1619    0.9601   -4.8946 C.3       1 <0>         0.0950
     20 C13        -0.5435    1.4461   -3.6547 C.2       1 <0>         0.5063
     21 O3         -1.5399    2.1304   -3.7528 O.2       1 <0>        -0.5280
     22 N5         -0.0670    1.1202   -2.4368 N.am      1 <0>        -0.7377
     23 C14        -0.7527    1.5927   -1.2315 C.3       1 <0>         0.1286
     24 C15        -0.0127    1.0858    0.0080 C.3       1 <0>        -0.0916
     25 C16        -0.7181    1.5718    1.2479 C.ar      1 <0>        -0.0797
     26 C17        -0.3597    2.7789    1.8184 C.ar      1 <0>        -0.1006
     27 C18        -1.0101    3.2279    2.9523 C.ar      1 <0>        -0.1082
     28 C19        -2.0123    2.4636    3.5229 C.ar      1 <0>        -0.0355
     29 C20        -2.3667    1.2529    2.9547 C.ar      1 <0>        -0.1079
     30 C21        -1.7194    0.8077    1.8175 C.ar      1 <0>        -0.1004
     31 Cl1        -2.8253    3.0237    4.9508 Cl        1 <0>        -0.0682
     32 H1         -3.4795   -1.3721   -9.6760 H         1 <0>         0.0806
     33 H2         -1.9152   -1.3532   -8.7932 H         1 <0>         0.0620
     34 H3         -2.2284   -0.1519  -10.0915 H         1 <0>         0.0622
     35 H4         -4.0457    0.8559   -8.7205 H         1 <0>         0.1040
     36 H5         -3.7325   -0.3454   -7.4222 H         1 <0>         0.1031
     37 H6          3.5318    4.5615   -5.7905 H         1 <0>         0.1039
     38 H7          3.3470    4.4484   -7.5736 H         1 <0>         0.0665
     39 H8          4.3346    6.8409   -5.8870 H         1 <0>         0.0864
     40 H9          5.0899    6.1393   -7.3580 H         1 <0>         0.0892
     41 H10         3.3360    8.3430   -7.4325 H         1 <0>         0.0899
     42 H11         3.5661    7.2129   -8.8096 H         1 <0>         0.0839
     43 H12         1.4016    6.3944   -8.5135 H         1 <0>         0.0683
     44 H13         1.1582    7.5510   -7.1608 H         1 <0>         0.1085
     45 H14         0.1768   -0.1398   -4.9007 H         1 <0>         0.1343
     46 H15         1.1939    1.3408   -4.9024 H         1 <0>         0.1307
     47 H16         0.8367    0.4994   -2.3478 H         1 <0>         0.4238
     48 H17        -0.7675    2.6926   -1.2255 H         1 <0>         0.0691
     49 H18        -1.7847    1.2120   -1.2237 H         1 <0>         0.0694
     50 H19         0.0022   -0.0141    0.0019 H         1 <0>         0.0849
     51 H20         1.0193    1.4665    0.0002 H         1 <0>         0.0845
     52 H21         0.4257    3.3734    1.3755 H         1 <0>         0.1326
     53 H22        -0.7330    4.1730    3.3954 H         1 <0>         0.1348
     54 H23        -3.1492    0.6560    3.3994 H         1 <0>         0.1349
     55 H24        -1.9962   -0.1372    1.3737 H         1 <0>         0.1330
@<TRIPOS>BOND
     1    1    2 1
     2    1   32 1
     3    1   33 1
     4    1   34 1
     5    2    3 1
     6    2   35 1
     7    2   36 1
     8    3   17 am
     9    3    4 am
    10    4    5 2
    11    4    6 1
    12    6   10 1
    13    6    7 2
    14    7    8 1
    15    7   16 1
    16    8    9 2
    17    9   10 1
    18    9   11 1
    19   11   15 1
    20   11   12 1
    21   12   13 1
    22   12   37 1
    23   12   38 1
    24   13   14 1
    25   13   39 1
    26   13   40 1
    27   14   15 1
    28   14   41 1
    29   14   42 1
    30   15   43 1
    31   15   44 1
    32   16   17 am
    33   16   19 1
    34   17   18 2
    35   19   20 1
    36   19   45 1
    37   19   46 1
    38   20   21 2
    39   20   22 am
    40   22   23 1
    41   22   47 1
    42   23   24 1
    43   23   48 1
    44   23   49 1
    45   24   25 1
    46   24   50 1
    47   24   51 1
    48   25   30 ar
    49   25   26 ar
    50   26   27 ar
    51   26   52 1
    52   27   28 ar
    53   27   53 1
    54   28   29 ar
    55   28   31 1
    56   29   30 ar
    57   29   54 1
    58   30   55 1
@<TRIPOS>MOLECULE
ZINC32876781
   61    65     0     0     0
SMALL
USER_CHARGES

@<TRIPOS>ATOM
      1 C1          0.8767    1.2672   -1.6603 C.3       1 <0>        -0.1445
      2 C2          0.7609   -0.2401   -1.4242 C.3       1 <0>         0.0751
      3 H1          1.1787   -0.7753   -2.2769 H         1 <0>         0.0643
      4 C3         -0.7145   -0.6198   -1.2543 C.3       1 <0>         0.0835
      5 N1         -0.7862   -2.0313   -0.8444 N.am      1 <0>        -0.6103
      6 C4          0.0435   -2.4649    0.2909 C.3       1 <0>         0.0719
      7 C5          1.4820   -1.9952    0.0457 C.3       1 <0>         0.0750
      8 H2          1.9027   -2.5375   -0.8011 H         1 <0>         0.0650
      9 O1          1.4786   -0.5944   -0.2397 O.3       1 <0>        -0.3716
     10 C6          2.3263   -2.2615    1.2935 C.3       1 <0>        -0.1461
     11 C7         -1.5878   -2.9014   -1.4901 C.2       1 <0>         0.5403
     12 O2         -2.2638   -2.5249   -2.4240 O.2       1 <0>        -0.5205
     13 C8         -1.6440   -4.3421   -1.0517 C.3       1 <0>        -0.1426
     14 S1         -2.8042   -5.2511   -2.1092 S.3       1 <0>         0.0689
     15 C9         -2.7579   -6.8954   -1.4778 C.2       1 <0>         0.1384
     16 N2         -2.0382   -7.3209   -0.4659 N.2       1 <0>        -0.2928
     17 N3         -2.2437   -8.5747   -0.2732 N.2       1 <0>        -0.2732
     18 C10        -3.1087   -9.0280   -1.1515 C.2       1 <0>         0.2850
     19 N4         -3.4698   -7.9653   -1.9471 N.pl3     1 <0>        -0.4506
     20 C11        -4.4166   -7.9773   -3.0649 C.3       1 <0>         0.0939
     21 C12        -3.6540   -8.1698   -4.3772 C.3       1 <0>         0.0640
     22 H3         -2.8755   -7.4122   -4.4669 H         1 <0>         0.0920
     23 C13        -4.6286   -8.0631   -5.5698 C.3       1 <0>        -0.1472
     24 C14        -4.1041   -9.1705   -6.5241 C.3       1 <0>        -0.1547
     25 C15        -3.6172  -10.2309   -5.5047 C.3       1 <0>         0.0500
     26 O3         -3.0671   -9.4760   -4.4110 O.3       1 <0>        -0.3612
     27 C16        -3.6042  -10.4148   -1.2607 C.2       1 <0>        -0.0958
     28 C17        -4.8967  -10.8054   -1.4045 C.2       1 <0>         0.0834
     29 N5         -4.9617  -12.1671   -1.4708 N.pl3     1 <0>        -0.5839
     30 H4         -5.7790  -12.6794   -1.5737 H         1 <0>         0.4208
     31 C18        -3.6984  -12.7094   -1.3711 C.ar      1 <0>         0.0967
     32 C19        -2.7921  -11.6434   -1.2413 C.ar      1 <0>        -0.0671
     33 C20        -1.4270  -11.8983   -1.1259 C.ar      1 <0>        -0.0596
     34 C21        -0.9722  -13.1982   -1.1432 C.ar      1 <0>        -0.1413
     35 C22        -1.8659  -14.2516   -1.2746 C.ar      1 <0>        -0.0944
     36 C23        -3.2190  -14.0153   -1.3817 C.ar      1 <0>        -0.1303
     37 H5          1.9261    1.5367   -1.7793 H         1 <0>         0.0699
     38 H6          0.3277    1.5369   -2.5625 H         1 <0>         0.0760
     39 H7          0.4587    1.8017   -0.8073 H         1 <0>         0.0676
     40 H8         -1.1694    0.0084   -0.4884 H         1 <0>         0.0808
     41 H9         -1.2396   -0.4850   -2.1999 H         1 <0>         0.1048
     42 H10        -0.3351   -2.0224    1.2123 H         1 <0>         0.0859
     43 H11         0.0204   -3.5519    0.3685 H         1 <0>         0.0988
     44 H12         2.3254   -3.3295    1.5117 H         1 <0>         0.0771
     45 H13         3.3489   -1.9274    1.1184 H         1 <0>         0.0704
     46 H14         1.9061   -1.7175    2.1394 H         1 <0>         0.0681
     47 H15        -0.6521   -4.7862   -1.1350 H         1 <0>         0.1263
     48 H16        -1.9794   -4.3939   -0.0159 H         1 <0>         0.1272
     49 H17        -5.1245   -8.7956   -2.9326 H         1 <0>         0.1024
     50 H18        -4.9566   -7.0309   -3.0939 H         1 <0>         0.1089
     51 H19        -5.6507   -8.2740   -5.2555 H         1 <0>         0.0814
     52 H20        -4.5606   -7.0820   -6.0397 H         1 <0>         0.0915
     53 H21        -4.9068   -9.5644   -7.1475 H         1 <0>         0.0866
     54 H22        -3.2786   -8.8044   -7.1346 H         1 <0>         0.0818
     55 H23        -4.4546  -10.8389   -5.1622 H         1 <0>         0.0585
     56 H24        -2.8490  -10.8614   -5.9524 H         1 <0>         0.0869
     57 H25        -5.7452  -10.1393   -1.4576 H         1 <0>         0.1705
     58 H26        -0.7290  -11.0805   -1.0238 H         1 <0>         0.1237
     59 H27         0.0853  -13.3987   -1.0543 H         1 <0>         0.1250
     60 H28        -1.4977  -15.2668   -1.2872 H         1 <0>         0.1272
     61 H29        -3.9057  -14.8424   -1.4850 H         1 <0>         0.1217
@<TRIPOS>BOND
     1    1    2 1
     2    1   37 1
     3    1   38 1
     4    1   39 1
     5    2    3 1
     6    2    9 1
     7    2    4 1
     8    4    5 1
     9    4   40 1
    10    4   41 1
    11    5    6 1
    12    5   11 am
    13    6    7 1
    14    6   42 1
    15    6   43 1
    16    7    8 1
    17    7    9 1
    18    7   10 1
    19   10   44 1
    20   10   45 1
    21   10   46 1
    22   11   12 2
    23   11   13 1
    24   13   14 1
    25   13   47 1
    26   13   48 1
    27   14   15 1
    28   15   19 1
    29   15   16 2
    30   16   17 1
    31   17   18 2
    32   18   19 1
    33   18   27 1
    34   19   20 1
    35   20   21 1
    36   20   49 1
    37   20   50 1
    38   21   22 1
    39   21   26 1
    40   21   23 1
    41   23   24 1
    42   23   51 1
    43   23   52 1
    44   24   25 1
    45   24   53 1
    46   24   54 1
    47   25   26 1
    48   25   55 1
    49   25   56 1
    50   27   32 1
    51   27   28 2
    52   28   29 1
    53   28   57 1
    54   29   30 1
    55   29   31 1
    56   31   36 ar
    57   31   32 ar
    58   32   33 ar
    59   33   34 ar
    60   33   58 1
    61   34   35 ar
    62   34   59 1
    63   35   36 ar
    64   35   60 1
    65   36   61 1
@<TRIPOS>MOLECULE
ZINC49060076
   59    62     0     0     0
SMALL
USER_CHARGES

@<TRIPOS>ATOM
      1 C1         -0.0184    1.5028    0.0103 C.3       1 <0>        -0.1190
      2 C2          0.0021   -0.0041    0.0020 C.ar      1 <0>        -0.0736
      3 C3          0.0057   -0.6865   -1.2012 C.ar      1 <0>        -0.1203
      4 C4          0.0239   -2.0664   -1.2147 C.ar      1 <0>        -0.0960
      5 C5          0.0392   -2.7723   -0.0132 C.ar      1 <0>        -0.0381
      6 C6          0.0359   -2.0795    1.1960 C.ar      1 <0>        -0.0774
      7 C7          0.0229   -0.6995    1.1976 C.ar      1 <0>        -0.1219
      8 C8          0.0583   -4.2557   -0.0214 C.2       1 <0>         0.1033
      9 C9          0.0669   -4.9535   -1.2518 C.2       1 <0>        -0.0557
     10 C10         0.0850   -6.3166   -1.2205 C.2       1 <0>        -0.1856
     11 C11         0.0940   -6.9489    0.0425 C.2       1 <0>         0.4811
     12 O1          0.1105   -8.1668    0.1202 O.2       1 <0>        -0.5328
     13 N1          0.0846   -6.1984    1.1600 N.am      1 <0>        -0.3259
     14 N2          0.0726   -4.9154    1.1128 N.2       1 <0>        -0.1934
     15 C12         0.0940   -6.8634    2.4653 C.3       1 <0>         0.1203
     16 H1          0.1083   -7.9439    2.3225 H         1 <0>         0.1479
     17 C13        -1.1602   -6.4689    3.2478 C.3       1 <0>        -0.1570
     18 C14         1.3194   -6.4422    3.2349 C.2       1 <0>         0.5148
     19 O2          2.1072   -5.6632    2.7415 O.2       1 <0>        -0.5093
     20 N3          1.5398   -6.9312    4.4713 N.am      1 <0>        -0.7219
     21 C15         2.7310   -6.5218    5.2194 C.3       1 <0>         0.1105
     22 C16         2.7408   -7.2163    6.5826 C.3       1 <0>         0.1030
     23 N4          3.9320   -6.8069    7.3307 N.am      1 <0>        -0.3399
     24 C17         3.8632   -5.7274    8.1320 C.2       1 <0>         0.4769
     25 O3          2.8204   -5.1011    8.2314 O.2       1 <0>        -0.5238
     26 C18         5.0066   -5.3250    8.8572 C.2       1 <0>        -0.1794
     27 C19         6.1463   -6.0593    8.7109 C.2       1 <0>        -0.0615
     28 C20         6.1160   -7.1768    7.8443 C.2       1 <0>         0.1098
     29 N5          5.0119   -7.4904    7.2083 N.2       1 <0>        -0.2172
     30 C21         7.3355   -8.0010    7.6582 C.ar      1 <0>        -0.0370
     31 C22         8.5077   -7.6792    8.3398 C.ar      1 <0>        -0.0992
     32 C23         9.6392   -8.4494    8.1629 C.ar      1 <0>        -0.1183
     33 C24         9.6112   -9.5389    7.3110 C.ar      1 <0>        -0.1061
     34 C25         8.4506   -9.8626    6.6317 C.ar      1 <0>        -0.1203
     35 C26         7.3114   -9.1031    6.8057 C.ar      1 <0>        -0.0847
     36 H2          1.0042    1.8801    0.0026 H         1 <0>         0.0730
     37 H3         -0.5455    1.8639   -0.8728 H         1 <0>         0.0684
     38 H4         -0.5286    1.8543    0.9071 H         1 <0>         0.0681
     39 H5         -0.0062   -0.1385   -2.1317 H         1 <0>         0.1278
     40 H6          0.0260   -2.5983   -2.1547 H         1 <0>         0.1279
     41 H7          0.0474   -2.6216    2.1301 H         1 <0>         0.1314
     42 H8          0.0244   -0.1615    2.1341 H         1 <0>         0.1260
     43 H9          0.0591   -4.4206   -2.1912 H         1 <0>         0.1556
     44 H10         0.0919   -6.8946   -2.1328 H         1 <0>         0.1682
     45 H11        -1.1532   -6.9637    4.2190 H         1 <0>         0.0855
     46 H12        -1.1744   -5.3884    3.3906 H         1 <0>         0.0804
     47 H13        -2.0465   -6.7735    2.6912 H         1 <0>         0.0779
     48 H14         0.9096   -7.5542    4.8659 H         1 <0>         0.4050
     49 H15         3.6245   -6.8028    4.6619 H         1 <0>         0.0790
     50 H16         2.7167   -5.4413    5.3622 H         1 <0>         0.0789
     51 H17         1.8473   -6.9353    7.1400 H         1 <0>         0.1154
     52 H18         2.7551   -8.2968    6.4398 H         1 <0>         0.1101
     53 H19         4.9792   -4.4627    9.5069 H         1 <0>         0.1687
     54 H20         7.0484   -5.7944    9.2423 H         1 <0>         0.1567
     55 H21         8.5307   -6.8286    9.0048 H         1 <0>         0.1284
     56 H22        10.5483   -8.2008    8.6903 H         1 <0>         0.1291
     57 H23        10.4990  -10.1388    7.1756 H         1 <0>         0.1261
     58 H24         8.4345  -10.7139    5.9673 H         1 <0>         0.1276
     59 H25         6.4044   -9.3596    6.2785 H         1 <0>         0.1323
@<TRIPOS>BOND
     1    1    2 1
     2    1   36 1
     3    1   37 1
     4    1   38 1
     5    2    7 ar
     6    2    3 ar
     7    3    4 ar
     8    3   39 1
     9    4    5 ar
    10    4   40 1
    11    5    6 ar
    12    5    8 1
    13    6    7 ar
    14    6   41 1
    15    7   42 1
    16    8   14 2
    17    8    9 1
    18    9   10 2
    19    9   43 1
    20   10   11 1
    21   10   44 1
    22   11   12 2
    23   11   13 am
    24   13   14 1
    25   13   15 1
    26   15   16 1
    27   15   17 1
    28   15   18 1
    29   17   45 1
    30   17   46 1
    31   17   47 1
    32   18   19 2
    33   18   20 am
    34   20   21 1
    35   20   48 1
    36   21   22 1
    37   21   49 1
    38   21   50 1
    39   22   23 1
    40   22   51 1
    41   22   52 1
    42   23   29 1
    43   23   24 am
    44   24   25 2
    45   24   26 1
    46   26   27 2
    47   26   53 1
    48   27   28 1
    49   27   54 1
    50   28   29 2
    51   28   30 1
    52   30   35 ar
    53   30   31 ar
    54   31   32 ar
    55   31   55 1
    56   32   33 ar
    57   32   56 1
    58   33   34 ar
    59   33   57 1
    60   34   35 ar
    61   34   58 1
    62   35   59 1
@<TRIPOS>MOLECULE
ZINC65305431
   48    52     0     0     0
SMALL
USER_CHARGES

@<TRIPOS>ATOM
      1 C1         -0.0163    1.3513    0.0095 C.2       1 <0>        -0.1661
      2 C2          1.1833    2.0380    0.0017 C.2       1 <0>        -0.1195
      3 C3          2.3426    1.3358   -0.0131 C.2       1 <0>        -0.1928
      4 S1          1.7535   -0.3495   -0.0166 S.3       1 <0>         0.0718
      5 C4          0.0021   -0.0041    0.0020 C.2       1 <0>        -0.1658
      6 C5          3.7608    1.8454   -0.0244 C.3       1 <0>         0.2055
      7 N1          4.2338    2.0036    1.3531 N.am      1 <0>        -0.5065
      8 C6          4.0518    3.1746    2.0000 C.2       1 <0>         0.6195
      9 O1          3.4945    4.1023    1.4412 O.2       1 <0>        -0.4901
     10 C7          4.5068    3.3173    3.3175 C.2       1 <0>        -0.3381
     11 C8          5.1489    2.2805    3.9935 C.2       1 <0>         0.2031
     12 C9          5.5285    2.6075    5.2923 C.2       1 <0>        -0.1885
     13 C10         5.2613    3.8398    5.7775 C.2       1 <0>        -0.1951
     14 S2          4.4842    4.6270    4.5120 S.3       1 <0>         0.3618
     15 N2          5.3215    1.0751    3.2869 N.am      1 <0>        -0.4891
     16 C11         4.8647    0.9473    1.9972 C.2       1 <0>         0.5078
     17 N3          5.1409   -0.2583    1.5791 N.2       1 <0>        -0.2692
     18 N4          5.7877   -0.9418    2.6170 N.am      1 <0>        -0.4216
     19 C12         5.8933   -0.0879    3.6581 C.2       1 <0>         0.6726
     20 O2          6.3992   -0.3293    4.7399 O.2       1 <0>        -0.5218
     21 C13         6.2720   -2.3239    2.5760 C.3       1 <0>         0.1467
     22 C14         5.1816   -3.2524    3.0449 C.2       1 <0>         0.4962
     23 O3          4.1059   -2.8039    3.3804 O.2       1 <0>        -0.5156
     24 N5          5.4019   -4.5812    3.0916 N.am      1 <0>        -0.7238
     25 C15         4.3419   -5.4838    3.5475 C.3       1 <0>         0.1632
     26 C16         4.8400   -6.9055    3.5053 C.ar      1 <0>        -0.1082
     27 C17         4.6788   -7.6604    2.3585 C.ar      1 <0>        -0.0861
     28 C18         5.1355   -8.9643    2.3192 C.ar      1 <0>        -0.1117
     29 C19         5.7541   -9.5140    3.4279 C.ar      1 <0>        -0.0261
     30 C20         5.9152   -8.7580    4.5753 C.ar      1 <0>        -0.1115
     31 C21         5.4632   -7.4524    4.6115 C.ar      1 <0>        -0.0863
     32 Cl1         6.3275  -11.1519    3.3795 Cl        1 <0>        -0.0643
     33 H1         -0.9542    1.8866    0.0258 H         1 <0>         0.1356
     34 H2          1.1967    3.1179    0.0070 H         1 <0>         0.1390
     35 H3         -0.8275   -0.6955    0.0065 H         1 <0>         0.1864
     36 H4          4.3986    1.1333   -0.5480 H         1 <0>         0.1151
     37 H5          3.7967    2.8084   -0.5337 H         1 <0>         0.1301
     38 H6          6.0338    1.8794    5.9094 H         1 <0>         0.1569
     39 H7          5.4943    4.2307    6.7569 H         1 <0>         0.2090
     40 H8          6.5532   -2.5802    1.5545 H         1 <0>         0.1341
     41 H9          7.1399   -2.4242    3.2277 H         1 <0>         0.1324
     42 H10         6.2623   -4.9399    2.8233 H         1 <0>         0.4045
     43 H11         4.0607   -5.2275    4.5689 H         1 <0>         0.0804
     44 H12         3.4740   -5.3835    2.8957 H         1 <0>         0.0814
     45 H13         4.1955   -7.2313    1.4932 H         1 <0>         0.1355
     46 H14         5.0091   -9.5541    1.4233 H         1 <0>         0.1371
     47 H15         6.3978   -9.1867    5.4412 H         1 <0>         0.1370
     48 H16         5.5931   -6.8606    5.5055 H         1 <0>         0.1352
@<TRIPOS>BOND
     1    1    5 2
     2    1    2 1
     3    1   33 1
     4    2    3 2
     5    2   34 1
     6    3    4 1
     7    3    6 1
     8    4    5 1
     9    5   35 1
    10    6    7 1
    11    6   36 1
    12    6   37 1
    13    7   16 1
    14    7    8 am
    15    8    9 2
    16    8   10 1
    17   10   14 1
    18   10   11 2
    19   11   12 1
    20   11   15 1
    21   12   13 2
    22   12   38 1
    23   13   14 1
    24   13   39 1
    25   15   19 am
    26   15   16 1
    27   16   17 2
    28   17   18 1
    29   18   19 am
    30   18   21 1
    31   19   20 2
    32   21   22 1
    33   21   40 1
    34   21   41 1
    35   22   23 2
    36   22   24 am
    37   24   25 1
    38   24   42 1
    39   25   26 1
    40   25   43 1
    41   25   44 1
    42   26   31 ar
    43   26   27 ar
    44   27   28 ar
    45   27   45 1
    46   28   29 ar
    47   28   46 1
    48   29   30 ar
    49   29   32 1
    50   30   31 ar
    51   30   47 1
    52   31   48 1
@<TRIPOS>MOLECULE
ZINC10462731
   57    61     0     0     0
SMALL
USER_CHARGES
N-[4-(benzo[1,3]dioxol-5-ylmethylcarbamoyl)phenyl]-5-oxo-1-phenyl-pyrrolidine-3-carboxamide
@<TRIPOS>ATOM
      1 C1         -8.9905    8.2495    6.0178 C.ar      1 <0>        -0.1432
      2 C2         -7.6745    8.6583    6.1332 C.ar      1 <0>        -0.0927
      3 C3         -6.7437    7.8334    6.7338 C.ar      1 <0>        -0.1538
      4 C4         -7.1306    6.5922    7.2219 C.ar      1 <0>         0.1636
      5 C5         -8.4517    6.1822    7.0993 C.ar      1 <0>        -0.1567
      6 C6         -9.3789    7.0143    6.5032 C.ar      1 <0>        -0.0920
      7 N1         -6.1900    5.7542    7.8309 N.am      1 <0>        -0.5538
      8 C7         -4.7990    6.1327    8.1062 C.3       1 <0>         0.1076
      9 C8         -4.0528    4.8041    8.3599 C.3       1 <0>        -0.1242
     10 H1         -3.2964    4.9229    9.1357 H         1 <0>         0.1405
     11 C9         -5.1996    3.8853    8.8413 C.3       1 <0>        -0.1459
     12 C10        -6.4442    4.4988    8.2386 C.2       1 <0>         0.5147
     13 O1         -7.5157    3.9394    8.1384 O.2       1 <0>        -0.5019
     14 C11        -3.4388    4.2790    7.0878 C.2       1 <0>         0.5210
     15 O2         -3.4742    4.9474    6.0764 O.2       1 <0>        -0.5013
     16 N2         -2.8503    3.0666    7.0740 N.am      1 <0>        -0.6697
     17 C12        -2.2013    2.6196    5.9236 C.ar      1 <0>         0.1692
     18 C13        -1.0533    1.8411    6.0324 C.ar      1 <0>        -0.1501
     19 C14        -0.4104    1.3978    4.8986 C.ar      1 <0>        -0.0371
     20 C15        -0.9122    1.7306    3.6374 C.ar      1 <0>        -0.1504
     21 C16        -2.0624    2.5172    3.5318 C.ar      1 <0>        -0.0648
     22 C17        -2.7035    2.9528    4.6696 C.ar      1 <0>        -0.1280
     23 C18        -0.2252    1.2576    2.4197 C.2       1 <0>         0.5623
     24 O3          0.7783    0.5775    2.5132 O.2       1 <0>        -0.5347
     25 N3         -0.7104    1.5794    1.2042 N.am      1 <0>        -0.7245
     26 C19        -0.0285    1.1098   -0.0044 C.3       1 <0>         0.1668
     27 C20        -0.7671    1.6035   -1.2218 C.ar      1 <0>        -0.1040
     28 C21        -1.7738    0.8352   -1.7764 C.ar      1 <0>        -0.0871
     29 C22        -2.4579    1.2863   -2.8897 C.ar      1 <0>        -0.1015
     30 C23        -2.1277    2.5051   -3.4597 C.ar      1 <0>         0.0422
     31 C24        -1.1100    3.2766   -2.9041 C.ar      1 <0>         0.0306
     32 C25        -0.4327    2.8209   -1.7847 C.ar      1 <0>        -0.0809
     33 O4         -0.9779    4.4192   -3.6391 O.3       1 <0>        -0.3071
     34 C26        -1.6443    4.1526   -4.8874 C.3       1 <0>         0.2127
     35 O5         -2.6332    3.1644   -4.5428 O.3       1 <0>        -0.3074
     36 H2         -9.7164    8.8963    5.5477 H         1 <0>         0.1238
     37 H3         -7.3744    9.6239    5.7537 H         1 <0>         0.1272
     38 H4         -5.7162    8.1535    6.8240 H         1 <0>         0.1257
     39 H5         -8.7547    5.2156    7.4739 H         1 <0>         0.1537
     40 H6        -10.4075    6.6980    6.4119 H         1 <0>         0.1269
     41 H7         -4.7490    6.7682    8.9904 H         1 <0>         0.0962
     42 H8         -4.3709    6.6475    7.2461 H         1 <0>         0.1084
     43 H9         -5.0565    2.8704    8.4703 H         1 <0>         0.1115
     44 H10        -5.2592    3.8879    9.9296 H         1 <0>         0.1283
     45 H11        -2.8782    2.5049    7.8644 H         1 <0>         0.4158
     46 H12        -0.6663    1.5840    7.0073 H         1 <0>         0.1358
     47 H13         0.4805    0.7933    4.9837 H         1 <0>         0.1429
     48 H14        -2.4504    2.7795    2.5586 H         1 <0>         0.1292
     49 H15        -3.5948    3.5572    4.5886 H         1 <0>         0.1443
     50 H16        -1.5110    2.1219    1.1296 H         1 <0>         0.4023
     51 H17        -0.0073    0.0200   -0.0095 H         1 <0>         0.0850
     52 H18         0.9917    1.4932   -0.0182 H         1 <0>         0.0824
     53 H19        -2.0292   -0.1175   -1.3364 H         1 <0>         0.1422
     54 H20        -3.2467    0.6860   -3.3185 H         1 <0>         0.1398
     55 H21         0.3572    3.4170   -1.3520 H         1 <0>         0.1386
     56 H22        -0.9419    3.7527   -5.6187 H         1 <0>         0.0874
     57 H23        -2.1216    5.0559   -5.2673 H         1 <0>         0.1345
@<TRIPOS>BOND
     1    1    6 ar
     2    1    2 ar
     3    1   36 1
     4    2    3 ar
     5    2   37 1
     6    3    4 ar
     7    3   38 1
     8    4    5 ar
     9    4    7 1
    10    5    6 ar
    11    5   39 1
    12    6   40 1
    13    7   12 am
    14    7    8 1
    15    8    9 1
    16    8   41 1
    17    8   42 1
    18    9   10 1
    19    9   11 1
    20    9   14 1
    21   11   12 1
    22   11   43 1
    23   11   44 1
    24   12   13 2
    25   14   15 2
    26   14   16 am
    27   16   17 1
    28   16   45 1
    29   17   22 ar
    30   17   18 ar
    31   18   19 ar
    32   18   46 1
    33   19   20 ar
    34   19   47 1
    35   20   21 ar
    36   20   23 1
    37   21   22 ar
    38   21   48 1
    39   22   49 1
    40   23   24 2
    41   23   25 am
    42   25   26 1
    43   25   50 1
    44   26   27 1
    45   26   51 1
    46   26   52 1
    47   27   32 ar
    48   27   28 ar
    49   28   29 ar
    50   28   53 1
    51   29   30 ar
    52   29   54 1
    53   30   35 1
    54   30   31 ar
    55   31   32 ar
    56   31   33 1
    57   32   55 1
    58   33   34 1
    59   34   35 1
    60   34   56 1
    61   34   57 1
@<TRIPOS>MOLECULE
ZINC20835427
   38    40     0     0     0
SMALL
USER_CHARGES
N-[1-(4-bromophenyl)ethylideneamino]-5-[[5-(trifluoromethyl)-1,3,4-oxadiazol-2-yl]methylsulfanyl]-4H-1,2,4-triazol-3-amine
@<TRIPOS>ATOM
      1 C1          2.3463   -0.4580   -0.0228 C.3       1 <0>        -0.1676
      2 C2          2.3258    1.0488   -0.0145 C.2       1 <0>         0.1502
      3 N1          1.1926    1.6828   -0.0003 N.2       1 <0>        -0.2500
      4 N2         -0.0111    0.9658    0.0074 N.pl3     1 <0>        -0.5547
      5 C3         -1.2219    1.6432    0.0168 C.2       1 <0>         0.5448
      6 N3         -2.4633    1.0701    0.0195 N.2       1 <0>        -0.5483
      7 C4         -3.3911    2.0726    0.0294 C.2       1 <0>         0.2189
      8 N4         -2.7509    3.2175    0.0326 N.2       1 <0>        -0.3206
      9 N5         -1.3766    2.9449    0.0303 N.pl3     1 <0>        -0.4717
     10 S1         -5.1407    1.8643    0.0365 S.3       1 <0>         0.0888
     11 C5         -5.7844    3.5602    0.0488 C.3       1 <0>        -0.0460
     12 C6         -7.2910    3.5256    0.0558 C.2       1 <0>         0.2146
     13 N6         -8.0568    3.5027    1.1094 N.2       1 <0>        -0.2491
     14 N7         -9.2893    3.4768    0.7411 N.2       1 <0>        -0.2018
     15 C7         -9.3518    3.4823   -0.5602 C.2       1 <0>         0.0721
     16 O1         -8.0912    3.5187   -1.0236 O.3       1 <0>        -0.1859
     17 C8        -10.6077    3.4583   -1.3928 C.3       1 <0>         0.5903
     18 F1        -11.7246    3.5441   -0.5546 F         1 <0>        -0.1327
     19 F2        -10.6027    4.5436   -2.2756 F         1 <0>        -0.1496
     20 F3        -10.6617    2.2650   -2.1210 F         1 <0>        -0.1477
     21 C9          3.5924    1.8033   -0.0226 C.ar      1 <0>        -0.0331
     22 C10         4.8136    1.1243   -0.0321 C.ar      1 <0>        -0.0862
     23 C11         5.9946    1.8363   -0.0459 C.ar      1 <0>        -0.0910
     24 C12         5.9722    3.2208   -0.0378 C.ar      1 <0>        -0.0760
     25 C13         4.7656    3.8999   -0.0225 C.ar      1 <0>        -0.0930
     26 C14         3.5771    3.2004   -0.0149 C.ar      1 <0>        -0.0764
     27 Br1         7.5968    4.1885   -0.0481 Br        1 <0>        -0.0407
     28 H1          3.3882   -0.8104   -0.0346 H         1 <0>         0.0952
     29 H2          1.8243   -0.8269   -0.9180 H         1 <0>         0.0876
     30 H3          1.8414   -0.8365    0.8782 H         1 <0>         0.0876
     31 H4          0.0039   -0.1341    0.0060 H         1 <0>         0.4404
     32 H5         -5.4254    4.0821    0.9481 H         1 <0>         0.1530
     33 H6         -5.4340    4.0919   -0.8481 H         1 <0>         0.1391
     34 H7          4.8325    0.0445   -0.0335 H         1 <0>         0.1429
     35 H8          6.9392    1.3128   -0.0585 H         1 <0>         0.1408
     36 H9          4.7552    4.9798   -0.0170 H         1 <0>         0.1391
     37 H10         2.6367    3.7313   -0.0034 H         1 <0>         0.1396
     38 H11        -0.4955    3.6034    0.0375 H         1 <0>         0.4770
@<TRIPOS>BOND
     1    1    2 1
     2    1   28 1
     3    1   29 1
     4    1   30 1
     5    2    3 2
     6    2   21 1
     7    3    4 1
     8    4    5 1
     9    4   31 1
    10    5    9 1
    11    5    6 2
    12    6    7 1
    13    7    8 2
    14    7   10 1
    15    8    9 1
    16    9   38 1
    17   10   11 1
    18   11   12 1
    19   11   32 1
    20   11   33 1
    21   12   16 1
    22   12   13 2
    23   13   14 1
    24   14   15 2
    25   15   16 1
    26   15   17 1
    27   17   18 1
    28   17   19 1
    29   17   20 1
    30   21   26 ar
    31   21   22 ar
    32   22   23 ar
    33   22   34 1
    34   23   24 ar
    35   23   35 1
    36   24   25 ar
    37   24   27 1
    38   25   26 ar
    39   25   36 1
    40   26   37 1
@<TRIPOS>MOLECULE
ZINC12536820
   58    61     0     0     0
SMALL
USER_CHARGES

@<TRIPOS>ATOM
      1 C1         -0.0455    1.4759   -0.0069 C.3       1 <0>        -0.1611
      2 C2         -0.0298   -0.0538   -0.0319 C.3       1 <0>        -0.1191
      3 C3          0.6906   -0.5359   -1.2927 C.3       1 <0>         0.1832
      4 C4          2.1183   -0.0271   -1.3186 C.2       1 <0>         0.5391
      5 O1          2.9951   -0.2648   -0.5158 O.2       1 <0>        -0.4438
      6 N1          2.2104    0.7438   -2.4202 N.am      1 <0>        -0.3757
      7 C5          1.0514    0.7922   -3.0869 C.2       1 <0>         0.7096
      8 O2          0.8878    1.4236   -4.1125 O.2       1 <0>        -0.5198
      9 N2          0.0875    0.0636   -2.4955 N.am      1 <0>        -0.7080
     10 N3          3.3755    1.4125   -2.8177 N.am      1 <0>        -0.5082
     11 C6          4.1008    0.9451   -3.8531 C.2       1 <0>         0.5211
     12 O3          3.7448   -0.0544   -4.4406 O.2       1 <0>        -0.4893
     13 C7          5.3542    1.6643   -4.2806 C.3       1 <0>         0.0505
     14 N4          5.9570    0.9618   -5.4212 N.3       1 <0>        -0.5192
     15 C8          6.4283   -0.3729   -5.0281 C.3       1 <0>         0.0342
     16 C9          6.8820   -1.1387   -6.2754 C.3       1 <0>         0.1279
     17 N5          7.8680   -0.3179   -6.9947 N.pl3     1 <0>        -0.6280
     18 C10         7.5194    1.0772   -7.3034 C.3       1 <0>         0.1268
     19 C11         7.0406    1.7558   -6.0156 C.3       1 <0>         0.0415
     20 C12         9.1025   -0.8494   -7.3748 C.ar      1 <0>         0.2345
     21 C13         9.9752   -0.0966   -8.1507 C.ar      1 <0>        -0.1976
     22 C14        11.1953   -0.6242   -8.5248 C.ar      1 <0>        -0.0565
     23 C15        11.5494   -1.9009   -8.1285 C.ar      1 <0>        -0.1731
     24 C16        10.6829   -2.6538   -7.3556 C.ar      1 <0>         0.0172
     25 C17         9.4625   -2.1290   -6.9731 C.ar      1 <0>        -0.1961
     26 Cl1        11.1313   -4.2563   -6.8609 Cl        1 <0>        -0.0717
     27 C18         0.6588   -2.0402   -1.3772 C.ar      1 <0>        -0.1075
     28 C19         0.6235   -2.7968   -0.2208 C.ar      1 <0>        -0.0907
     29 C20         0.5943   -4.1767   -0.2983 C.ar      1 <0>        -0.1185
     30 C21         0.6000   -4.7999   -1.5322 C.ar      1 <0>        -0.1031
     31 C22         0.6344   -4.0433   -2.6886 C.ar      1 <0>        -0.1168
     32 C23         0.6593   -2.6633   -2.6111 C.ar      1 <0>        -0.0930
     33 H1          0.9784    1.8498   -0.0057 H         1 <0>         0.0505
     34 H2         -0.5673    1.8484   -0.8884 H         1 <0>         0.0638
     35 H3         -0.5587    1.8193    0.8913 H         1 <0>         0.0743
     36 H4          0.4920   -0.4263    0.8496 H         1 <0>         0.0956
     37 H5         -1.0537   -0.4277   -0.0331 H         1 <0>         0.0964
     38 H6         -0.8264   -0.0459   -2.8016 H         1 <0>         0.4459
     39 H7          3.6602    2.2118   -2.3478 H         1 <0>         0.4265
     40 H8          5.1059    2.6848   -4.5725 H         1 <0>         0.1179
     41 H9          6.0617    1.6855   -3.4518 H         1 <0>         0.0756
     42 H10         7.2657   -0.2741   -4.3373 H         1 <0>         0.0381
     43 H11         5.6178   -0.9163   -4.5424 H         1 <0>         0.1012
     44 H12         7.3381   -2.0833   -5.9793 H         1 <0>         0.0871
     45 H13         6.0241   -1.3293   -6.9202 H         1 <0>         0.0758
     46 H14         8.3970    1.5976   -7.6871 H         1 <0>         0.0905
     47 H15         6.7228    1.0996   -8.0471 H         1 <0>         0.0747
     48 H16         6.6742    2.7562   -6.2461 H         1 <0>         0.0917
     49 H17         7.8695    1.8250   -5.3111 H         1 <0>         0.0441
     50 H18         9.6995    0.9003   -8.4614 H         1 <0>         0.1282
     51 H19        11.8738   -0.0392   -9.1279 H         1 <0>         0.1312
     52 H20        12.5039   -2.3113   -8.4230 H         1 <0>         0.1293
     53 H21         8.7882   -2.7150   -6.3662 H         1 <0>         0.1322
     54 H22         0.6191   -2.3099    0.7432 H         1 <0>         0.1313
     55 H23         0.5675   -4.7678    0.6051 H         1 <0>         0.1299
     56 H24         0.5780   -5.8780   -1.5927 H         1 <0>         0.1276
     57 H25         0.6392   -4.5302   -3.6525 H         1 <0>         0.1281
     58 H26         0.6824   -2.0721   -3.5146 H         1 <0>         0.1238
@<TRIPOS>BOND
     1    1    2 1
     2    1   33 1
     3    1   34 1
     4    1   35 1
     5    2    3 1
     6    2   36 1
     7    2   37 1
     8    3    9 1
     9    3    4 1
    10    3   27 1
    11    4    5 2
    12    4    6 am
    13    6    7 am
    14    6   10 1
    15    7    8 2
    16    7    9 am
    17    9   38 1
    18   10   11 am
    19   10   39 1
    20   11   12 2
    21   11   13 1
    22   13   14 1
    23   13   40 1
    24   13   41 1
    25   14   19 1
    26   14   15 1
    27   15   16 1
    28   15   42 1
    29   15   43 1
    30   16   17 1
    31   16   44 1
    32   16   45 1
    33   17   18 1
    34   17   20 1
    35   18   19 1
    36   18   46 1
    37   18   47 1
    38   19   48 1
    39   19   49 1
    40   20   25 ar
    41   20   21 ar
    42   21   22 ar
    43   21   50 1
    44   22   23 ar
    45   22   51 1
    46   23   24 ar
    47   23   52 1
    48   24   25 ar
    49   24   26 1
    50   25   53 1
    51   27   32 ar
    52   27   28 ar
    53   28   29 ar
    54   28   54 1
    55   29   30 ar
    56   29   55 1
    57   30   31 ar
    58   30   56 1
    59   31   32 ar
    60   31   57 1
    61   32   58 1
@<TRIPOS>MOLECULE
ZINC46642978
   56    59     0     0     0
SMALL
USER_CHARGES

@<TRIPOS>ATOM
      1 C1          0.8054    3.2456   -1.0374 C.3       1 <0>        -0.0921
      2 C2          1.0280    1.7690   -0.8344 C.2       1 <0>         0.1784
      3 C3          0.9684    0.8675   -1.8899 C.2       1 <0>        -0.3027
      4 S1          1.3068   -0.6629   -1.0342 S.3       1 <0>         0.1787
      5 C4          1.4829   -0.0297    0.5152 C.2       1 <0>         0.1213
      6 N1          1.2931    1.2679    0.3430 N.2       1 <0>        -0.5202
      7 C5          1.7834   -0.7515    1.7694 C.ar      1 <0>        -0.0351
      8 C6          1.8872   -0.0523    2.9730 C.ar      1 <0>        -0.0619
      9 C7          2.1674   -0.7322    4.1402 C.ar      1 <0>        -0.1217
     10 C8          2.3455   -2.1041    4.1195 C.ar      1 <0>        -0.0923
     11 C9          2.2440   -2.8033    2.9299 C.ar      1 <0>        -0.1179
     12 C10         1.9589   -2.1363    1.7564 C.ar      1 <0>        -0.0898
     13 C11         0.7012    1.1063   -3.3114 C.2       1 <0>         0.6200
     14 O1          0.4897    2.2368   -3.7093 O.2       1 <0>        -0.5183
     15 N2          0.6899    0.0739   -4.1776 N.am      1 <0>        -0.5206
     16 N3          0.4346    0.3021   -5.5361 N.am      1 <0>        -0.5191
     17 C12         0.4232   -0.7304   -6.4024 C.2       1 <0>         0.5157
     18 O2          0.6340   -1.8570   -6.0059 O.2       1 <0>        -0.5329
     19 C13         0.1486   -0.4849   -7.8637 C.3       1 <0>        -0.1258
     20 C14         0.1934   -1.8134   -8.6212 C.3       1 <0>        -0.1227
     21 C15        -0.0854   -1.5642  -10.1048 C.3       1 <0>         0.0895
     22 N4         -0.0425   -2.8363  -10.8302 N.am      1 <0>        -0.5422
     23 C16        -1.1818   -3.5592  -10.9892 C.2       1 <0>         0.3976
     24 N5         -1.2254   -4.6942  -11.6182 N.2       1 <0>        -0.5222
     25 C17        -0.1150   -5.2448  -12.1696 C.ar      1 <0>         0.1551
     26 C18        -0.1612   -6.4652  -12.8467 C.ar      1 <0>        -0.1120
     27 C19         0.9905   -6.9868  -13.3913 C.ar      1 <0>        -0.0716
     28 C20         2.2001   -6.3141  -13.2762 C.ar      1 <0>        -0.1397
     29 C21         2.2711   -5.1087  -12.6130 C.ar      1 <0>        -0.0405
     30 C22         1.1168   -4.5634  -12.0546 C.ar      1 <0>        -0.2015
     31 C23         1.1306   -3.2780  -11.3405 C.2       1 <0>         0.5496
     32 O3          2.1579   -2.6382  -11.2098 O.2       1 <0>        -0.5071
     33 C24        -2.4605   -3.0160  -10.4053 C.3       1 <0>        -0.1168
     34 H1          1.7569    3.7296   -1.2577 H         1 <0>         0.0858
     35 H2          0.1187    3.3985   -1.8699 H         1 <0>         0.0971
     36 H3          0.3797    3.6768   -0.1314 H         1 <0>         0.0797
     37 H4          1.7487    1.0187    2.9904 H         1 <0>         0.1378
     38 H5          2.2483   -0.1923    5.0721 H         1 <0>         0.1336
     39 H6          2.5650   -2.6316    5.0360 H         1 <0>         0.1313
     40 H7          2.3844   -3.8741    2.9206 H         1 <0>         0.1343
     41 H8          1.8756   -2.6838    0.8292 H         1 <0>         0.1281
     42 H9          0.8584   -0.8272   -3.8605 H         1 <0>         0.4310
     43 H10         0.2660    1.2031   -5.8533 H         1 <0>         0.4352
     44 H11        -0.8376   -0.0348   -7.9775 H         1 <0>         0.1084
     45 H12         0.9043    0.1891   -8.2672 H         1 <0>         0.1088
     46 H13         1.1796   -2.2635   -8.5075 H         1 <0>         0.0833
     47 H14        -0.5623   -2.4874   -8.2177 H         1 <0>         0.0814
     48 H15        -1.0716   -1.1142  -10.2186 H         1 <0>         0.1016
     49 H16         0.6703   -0.8902  -10.5083 H         1 <0>         0.1035
     50 H17        -1.0960   -6.9976  -12.9422 H         1 <0>         0.1401
     51 H18         0.9530   -7.9310  -13.9143 H         1 <0>         0.1354
     52 H19         3.0928   -6.7399  -13.7100 H         1 <0>         0.1342
     53 H20         3.2144   -4.5899  -12.5270 H         1 <0>         0.1376
     54 H21        -2.9130   -2.3170  -11.1087 H         1 <0>         0.0989
     55 H22        -3.1507   -3.8377  -10.2147 H         1 <0>         0.1046
     56 H23        -2.2424   -2.5002   -9.4700 H         1 <0>         0.0895
@<TRIPOS>BOND
     1    1    2 1
     2    1   34 1
     3    1   35 1
     4    1   36 1
     5    2    6 1
     6    2    3 2
     7    3    4 1
     8    3   13 1
     9    4    5 1
    10    5    6 2
    11    5    7 1
    12    7   12 ar
    13    7    8 ar
    14    8    9 ar
    15    8   37 1
    16    9   10 ar
    17    9   38 1
    18   10   11 ar
    19   10   39 1
    20   11   12 ar
    21   11   40 1
    22   12   41 1
    23   13   14 2
    24   13   15 am
    25   15   16 1
    26   15   42 1
    27   16   17 am
    28   16   43 1
    29   17   18 2
    30   17   19 1
    31   19   20 1
    32   19   44 1
    33   19   45 1
    34   20   21 1
    35   20   46 1
    36   20   47 1
    37   21   22 1
    38   21   48 1
    39   21   49 1
    40   22   31 am
    41   22   23 1
    42   23   24 2
    43   23   33 1
    44   24   25 1
    45   25   30 ar
    46   25   26 ar
    47   26   27 ar
    48   26   50 1
    49   27   28 ar
    50   27   51 1
    51   28   29 ar
    52   28   52 1
    53   29   30 ar
    54   29   53 1
    55   30   31 1
    56   31   32 2
    57   33   54 1
    58   33   55 1
    59   33   56 1
