@<TRIPOS>MOLECULE
3F9M-MRK
 35 37 0 0 0
SMALL
SF_CHARGES


@<TRIPOS>ATOM
1    S        -7.5780   -2.2750   20.8330  S.3        1 SUBUNIT     -0.0166
2    C        -7.7610   -3.4020   22.1330  C.2        1 SUBUNIT     -0.1209
3    C        -8.4000   -2.8120   23.2110  C.2        1 SUBUNIT      0.1786
4    N        -8.7310   -1.5050   23.0230  N.2        1 SUBUNIT     -0.5099
5    C        -8.3710   -1.0920   21.8220  C.2        1 SUBUNIT      0.3850
6    N        -8.6010    0.1890   21.4320  N.am       1 SUBUNIT     -0.5454
7    C        -8.2670    0.6360   20.2250  C.2        1 SUBUNIT      0.6620
8    O        -7.6480   -0.0420   19.4370  O.2        1 SUBUNIT     -0.5499
9    C        -8.1040    2.7000   18.7890  C.2        1 SUBUNIT      0.1136
10   C        -8.7240    1.9900   19.8170  C.2        1 SUBUNIT     -0.0525
11   C        -9.8100    2.5350   20.4960  C.2        1 SUBUNIT     -0.1149
12   C       -10.2840    3.7910   20.1680  C.2        1 SUBUNIT     -0.0043
13   C        -9.6680    4.5020   19.1430  C.2        1 SUBUNIT      0.1302
14   F       -10.1000    5.7320   18.7800  F          1 SUBUNIT     -0.1969
15   C        -8.5790    3.9610   18.4690  C.2        1 SUBUNIT     -0.1331
16   S       -11.6550    4.3790   21.0020  S.3        1 SUBUNIT     -0.1340
17   N       -12.1380    7.0100   20.8020  N.pl3      1 SUBUNIT     -0.2569
18   C       -11.4480    6.0510   21.4100  C.2        1 SUBUNIT      0.3815
19   N       -10.5840    6.4790   22.3400  N.2        1 SUBUNIT     -0.5207
20   C       -10.7470    7.8260   22.3210  C.2        1 SUBUNIT      0.1633
21   C       -11.7030    8.1420   21.3690  C.2        1 SUBUNIT     -0.0248
22   C       -13.1550    6.8740   19.7340  C.3        1 SUBUNIT      0.0994
23   N        -7.0470    2.1990   18.0970  N.pl3      1 SUBUNIT     -0.6574
24   H        -7.4616   -4.4330   22.2050  H          1 SUBUNIT      0.1148
25   H        -8.6203   -3.3358   24.1247  H          1 SUBUNIT      0.0870
26   H        -9.0399    0.8313   22.0730  H          1 SUBUNIT      0.3279
27   H       -10.2866    1.9770   21.2829  H          1 SUBUNIT      0.1158
28   H        -8.0986    4.5266   17.6899  H          1 SUBUNIT      0.1157
29   H       -10.2172    8.5241   22.9454  H          1 SUBUNIT      0.0875
30   H       -12.0496    9.1285   21.1153  H          1 SUBUNIT      0.1028
31   H       -12.7287    6.3985   18.8445  H          1 SUBUNIT      0.0402
32   H       -13.5461    7.8529   19.4376  H          1 SUBUNIT      0.0402
33   H       -13.9985    6.2625   20.0710  H          1 SUBUNIT      0.0402
34   H        -6.6243    2.7415   17.3600  H          1 SUBUNIT      0.3262
35   H        -6.6857    1.2850   18.3208  H          1 SUBUNIT      0.3262
@<TRIPOS>BOND
     1    1    2 1
     2    1    5 1
     3    2    3 2
     4    3    4 1
     5    4    5 2
     6    5    6 1
     7    6    7 1
     8    7    8 2
     9    7   10 1
    10    9   10 2
    11    9   15 1
    12    9   23 1
    13   10   11 1
    14   11   12 2
    15   12   13 1
    16   12   16 1
    17   13   14 1
    18   13   15 2
    19   16   18 1
    20   17   18 1
    21   17   21 1
    22   17   22 1
    23   18   19 2
    24   19   20 1
    25   20   21 2
    26    2   24 1
    27    3   25 1
    28    6   26 1
    29   11   27 1
    30   15   28 1
    31   20   29 1
    32   21   30 1
    33   22   31 1
    34   22   32 1
    35   22   33 1
    36   23   34 1
    37   23   35 1
