@<TRIPOS>MOLECULE
3KGC-ZK1
 40 42 0 0 0
SMALL
SF_CHARGES


@<TRIPOS>ATOM
1    O         8.7130   34.4980   -5.4500  O.2        1 SUBUNIT     -0.5139
2    O         9.3540   31.9580   -5.0410  O.2        1 SUBUNIT     -0.5312
3    O        11.3540   31.4920   -2.2280  O.2        1 SUBUNIT     -0.9965
4    O        10.0950   30.6710   -0.1780  O.2        1 SUBUNIT     -0.9965
5    O        10.8990   28.9740   -1.9370  O.2        1 SUBUNIT     -0.9965
6    F         6.4240   35.2010    2.0650  F          1 SUBUNIT     -0.2609
7    F         5.3180   36.2190    0.4970  F          1 SUBUNIT     -0.2609
8    F         4.4930   34.4630    1.4630  F          1 SUBUNIT     -0.2609
9    C         7.3500   32.1330   -0.7670  C.2        1 SUBUNIT     -0.1166
10   C         6.6740   34.7860   -1.2450  C.2        1 SUBUNIT     -0.1081
11   C         7.0110   31.4360    3.6730  C.3        1 SUBUNIT      0.1953
12   C         4.7430   31.1350    2.9910  C.3        1 SUBUNIT      0.1953
13   C         7.4710   31.7820    2.2510  C.3        1 SUBUNIT      0.1396
14   C         4.9970   31.6050    1.5510  C.3        1 SUBUNIT      0.1396
15   C         8.7990   30.5650   -2.7050  C.3        1 SUBUNIT      0.1061
16   N         7.7370   34.6560   -3.4210  N.am       1 SUBUNIT     -0.5283
17   O         5.9190   30.5020    3.5360  O.3        1 SUBUNIT     -0.4302
18   C         6.6600   32.8520    0.2000  C.2        1 SUBUNIT      0.1135
19   C         6.3110   34.1920   -0.0270  C.2        1 SUBUNIT     -0.0868
20   C         8.4210   33.9440   -4.3910  C.2        1 SUBUNIT      0.6301
21   C         8.7650   32.6040   -4.1710  C.2        1 SUBUNIT      0.6250
22   C         7.3690   34.0550   -2.2110  C.2        1 SUBUNIT      0.0984
23   C         7.7000   32.7250   -1.9830  C.2        1 SUBUNIT      0.0943
24   N         6.3570   32.1470    1.3680  N.pl3      1 SUBUNIT     -0.4498
25   N         8.4080   31.9820   -2.9620  N.am       1 SUBUNIT     -0.4358
26   C         5.5900   35.0360    1.0310  C.3        1 SUBUNIT      0.7825
27   P        10.4120   30.4730   -1.7570  P.3        1 SUBUNIT      0.9764
28   H         7.6167   31.1085   -0.5746  H          1 SUBUNIT      0.1066
29   H         6.4160   35.8125   -1.4386  H          1 SUBUNIT      0.1062
30   H         7.8216   30.9696    4.2426  H          1 SUBUNIT      0.0296
31   H         6.6626   32.3310    4.1990  H          1 SUBUNIT      0.0296
32   H         4.4877   31.9915    3.6236  H          1 SUBUNIT      0.0296
33   H         3.9221   30.4106    3.0078  H          1 SUBUNIT      0.0296
34   H         8.1633   32.6294    2.2922  H          1 SUBUNIT      0.0362
35   H         7.9794   30.9154    1.8157  H          1 SUBUNIT      0.0362
36   H         4.8713   30.7587    0.8676  H          1 SUBUNIT      0.0362
37   H         4.2784   32.3908    1.2957  H          1 SUBUNIT      0.0362
38   H         7.9696   30.1193   -2.1460  H          1 SUBUNIT      0.0369
39   H         8.8744   30.0893   -3.6884  H          1 SUBUNIT      0.0369
40   H         7.5029   35.6211   -3.5935  H          1 SUBUNIT      0.3268
@<TRIPOS>BOND
     1    1   20 2
     2    2   21 2
     3    3   27 2
     4    4   27 1
     5    5   27 1
     6    6   26 1
     7    7   26 1
     8    8   26 1
     9    9   18 1
    10    9   23 2
    11   10   19 1
    12   10   22 2
    13   11   13 1
    14   11   17 1
    15   12   14 1
    16   12   17 1
    17   13   24 1
    18   14   24 1
    19   15   25 1
    20   15   27 1
    21   16   20 1
    22   16   22 1
    23   18   19 2
    24   18   24 1
    25   19   26 1
    26   20   21 1
    27   21   25 1
    28   22   23 1
    29   23   25 1
    30    9   28 1
    31   10   29 1
    32   11   30 1
    33   11   31 1
    34   12   32 1
    35   12   33 1
    36   13   34 1
    37   13   35 1
    38   14   36 1
    39   14   37 1
    40   15   38 1
    41   15   39 1
    42   16   40 1
