@<TRIPOS>MOLECULE
CHEMBL524266
   34    36     0     0     0
SMALL
USER_CHARGES

@<TRIPOS>ATOM
      1 C1         -0.0169    1.3959    0.0097 C.ar      1 <0>        -0.3004
      2 C2          1.1895    2.0705    0.0018 C.ar      1 <0>         0.2057
      3 N1          2.3189    1.3790   -0.0127 N.ar      1 <0>        -0.5780
      4 C3          2.3087    0.0536   -0.0197 C.ar      1 <0>         0.5800
      5 N2          1.1777   -0.6333   -0.0130 N.ar      1 <0>        -0.5626
      6 C4          0.0021   -0.0041    0.0020 C.ar      1 <0>         0.3010
      7 C5         -1.2594   -0.7714    0.0104 C.2       1 <0>         0.0098
      8 C6         -1.3648   -2.1320    0.0101 C.2       1 <0>        -0.0391
      9 C7         -2.7321   -2.4306    0.0198 C.2       1 <0>        -0.2364
     10 C8         -3.4234   -1.2224    0.0240 C.2       1 <0>         0.0913
     11 N3         -2.5295   -0.2337    0.0259 N.pl3     1 <0>        -0.5038
     12 H1         -2.7388    0.7135    0.0340 H         1 <0>         0.4201
     13 C9         -4.9304   -1.1898    0.0294 C.3       1 <0>        -0.0335
     14 H2         -5.2917   -1.1695    1.0576 H         1 <0>         0.1085
     15 C10        -5.4530   -2.4435   -0.6727 C.3       1 <0>         0.1237
     16 N4         -4.7857   -3.6605   -0.2316 N.am      1 <0>        -0.7355
     17 C11        -3.4577   -3.7131    0.0273 C.2       1 <0>         0.5985
     18 O1         -2.8923   -4.7657    0.2543 O.2       1 <0>        -0.5280
     19 C12        -5.4189    0.0571   -0.7105 C.3       1 <0>        -0.1522
     20 C13        -6.9416    0.1537   -0.5967 C.3       1 <0>         0.0602
     21 F1         -7.3883    1.2939   -1.2733 F         1 <0>        -0.2138
     22 N5          3.5123   -0.6297   -0.0349 N.pl3     1 <0>        -0.8179
     23 H3         -0.9521    1.9360    0.0260 H         1 <0>         0.1360
     24 H4          1.2108    3.1502    0.0071 H         1 <0>         0.1710
     25 H5         -0.5504   -2.8414    0.0031 H         1 <0>         0.1599
     26 H6         -6.5208   -2.5372   -0.4753 H         1 <0>         0.0951
     27 H7         -5.3053   -2.3318   -1.7469 H         1 <0>         0.0715
     28 H8         -5.3141   -4.4661   -0.1183 H         1 <0>         0.4052
     29 H9         -4.9645    0.9435   -0.2681 H         1 <0>         0.0802
     30 H10        -5.1366   -0.0100   -1.7612 H         1 <0>         0.0887
     31 H11        -7.3960   -0.7327   -1.0392 H         1 <0>         0.0812
     32 H12        -7.2239    0.2208    0.4539 H         1 <0>         0.0802
     33 H13         4.3488   -0.1386   -0.0402 H         1 <0>         0.4168
     34 H14         3.5193   -1.5997   -0.0401 H         1 <0>         0.4166
@<TRIPOS>BOND
     1    1    6 ar
     2    1    2 ar
     3    1   23 1
     4    2    3 ar
     5    2   24 1
     6    3    4 ar
     7    4    5 ar
     8    4   22 1
     9    5    6 ar
    10    6    7 1
    11    7   11 1
    12    7    8 2
    13    8    9 1
    14    8   25 1
    15    9   17 1
    16    9   10 2
    17   10   11 1
    18   10   13 1
    19   11   12 1
    20   13   14 1
    21   13   15 1
    22   13   19 1
    23   15   16 1
    24   15   26 1
    25   15   27 1
    26   16   17 am
    27   16   28 1
    28   17   18 2
    29   19   20 1
    30   19   29 1
    31   19   30 1
    32   20   21 1
    33   20   31 1
    34   20   32 1
    35   22   33 1
    36   22   34 1
@<TRIPOS>MOLECULE
CHEMBL247798
   51    54     0     0     0
SMALL
USER_CHARGES

@<TRIPOS>ATOM
      1 C1         -2.3817    2.1116    0.1595 C.3       1 <0>        -0.1657
      2 C2         -3.0793    0.7508    0.1082 C.3       1 <0>         0.1321
      3 N1         -2.0762   -0.3149    0.1724 N.am      1 <0>        -0.7439
      4 C3         -2.4619   -1.6060    0.1423 C.2       1 <0>         0.6914
      5 O1         -3.6422   -1.8862    0.0620 O.2       1 <0>        -0.5235
      6 N2         -1.5390   -2.5865    0.2013 N.am      1 <0>        -0.6703
      7 C4         -1.9416   -3.9189    0.2763 C.ar      1 <0>         0.3891
      8 C5         -0.9896   -4.9175    0.4493 C.ar      1 <0>        -0.2111
      9 C6         -1.4028   -6.2358    0.5221 C.ar      1 <0>        -0.0221
     10 C7         -2.7598   -6.5113    0.4189 C.ar      1 <0>        -0.2033
     11 C8         -3.6499   -5.4699    0.2481 C.ar      1 <0>         0.1604
     12 N3         -3.2270   -4.2215    0.1876 N.ar      1 <0>        -0.4733
     13 C9         -3.2558   -7.9325    0.4922 C.3       1 <0>         0.1786
     14 N4         -3.5441   -8.2778    1.8864 N.pl3     1 <0>        -0.6816
     15 C10        -4.0168   -9.5440    2.2045 C.2       1 <0>         0.4455
     16 C11        -4.3106   -9.9170    3.5187 C.2       1 <0>        -0.3999
     17 S1         -4.8531  -11.5995    3.2658 S.3       1 <0>         0.1506
     18 C12        -4.6623  -11.6600    1.5952 C.2       1 <0>         0.1080
     19 N5         -4.2206  -10.4637    1.2865 N.2       1 <0>        -0.5615
     20 C13        -4.2066   -9.1699    4.7163 C.2       1 <0>         0.6269
     21 O2         -3.8090   -8.0190    4.6836 O.2       1 <0>        -0.5277
     22 N6         -4.5476   -9.7319    5.8929 N.am      1 <0>        -0.6692
     23 C14        -4.5477   -8.9621    7.0626 C.ar      1 <0>         0.1773
     24 C15        -4.2078   -9.5438    8.2768 C.ar      1 <0>        -0.1271
     25 C16        -4.2071   -8.7852    9.4317 C.ar      1 <0>        -0.0576
     26 C17        -4.5458   -7.4427    9.3820 C.ar      1 <0>         0.0067
     27 C18        -4.8877   -6.8564    8.1657 C.ar      1 <0>         0.0509
     28 C19        -4.8821   -7.6159    7.0076 C.ar      1 <0>        -0.0883
     29 O3         -5.1772   -5.5400    8.3819 O.3       1 <0>        -0.2840
     30 C20        -5.4062   -5.4240    9.7986 C.3       1 <0>         0.5706
     31 O4         -4.6214   -6.4924   10.3605 O.3       1 <0>        -0.2853
     32 F1         -4.9582   -4.1850   10.2692 F         1 <0>        -0.1156
     33 F2         -6.7620   -5.6023   10.0937 F         1 <0>        -0.1527
     34 H1         -3.1280    2.9045    0.1118 H         1 <0>         0.0774
     35 H2         -1.8198    2.1970    1.0896 H         1 <0>         0.0622
     36 H3         -1.7003    2.2026   -0.6864 H         1 <0>         0.0620
     37 H4         -3.7608    0.6598    0.9541 H         1 <0>         0.0685
     38 H5         -3.6412    0.6654   -0.8219 H         1 <0>         0.0685
     39 H6         -1.1345   -0.0914    0.2365 H         1 <0>         0.3961
     40 H7         -0.5947   -2.3650    0.1916 H         1 <0>         0.4141
     41 H8          0.0583   -4.6674    0.5255 H         1 <0>         0.1388
     42 H9         -0.6861   -7.0326    0.6558 H         1 <0>         0.1399
     43 H10        -4.7062   -5.6794    0.1670 H         1 <0>         0.1593
     44 H11        -4.1642   -8.0313   -0.1020 H         1 <0>         0.0798
     45 H12        -2.4915   -8.6046    0.1019 H         1 <0>         0.0782
     46 H13        -3.4047   -7.6219    2.5873 H         1 <0>         0.4274
     47 H14        -4.8608  -12.4887    0.9316 H         1 <0>         0.2301
     48 H15        -4.7929  -10.6697    5.9295 H         1 <0>         0.4148
     49 H16        -3.9434  -10.5901    8.3184 H         1 <0>         0.1512
     50 H17        -3.9424   -9.2398   10.3750 H         1 <0>         0.1509
     51 H18        -5.1419   -7.1620    6.0627 H         1 <0>         0.1566
@<TRIPOS>BOND
     1    1    2 1
     2    1   34 1
     3    1   35 1
     4    1   36 1
     5    2    3 1
     6    2   37 1
     7    2   38 1
     8    3    4 am
     9    3   39 1
    10    4    5 2
    11    4    6 am
    12    6    7 1
    13    6   40 1
    14    7   12 ar
    15    7    8 ar
    16    8    9 ar
    17    8   41 1
    18    9   10 ar
    19    9   42 1
    20   10   11 ar
    21   10   13 1
    22   11   12 ar
    23   11   43 1
    24   13   14 1
    25   13   44 1
    26   13   45 1
    27   14   15 1
    28   14   46 1
    29   15   19 1
    30   15   16 2
    31   16   17 1
    32   16   20 1
    33   17   18 1
    34   18   19 2
    35   18   47 1
    36   20   21 2
    37   20   22 am
    38   22   23 1
    39   22   48 1
    40   23   28 ar
    41   23   24 ar
    42   24   25 ar
    43   24   49 1
    44   25   26 ar
    45   25   50 1
    46   26   31 1
    47   26   27 ar
    48   27   28 ar
    49   27   29 1
    50   28   51 1
    51   29   30 1
    52   30   31 1
    53   30   32 1
    54   30   33 1
@<TRIPOS>MOLECULE
CHEMBL375525
   40    42     0     0     0
SMALL
USER_CHARGES

@<TRIPOS>ATOM
      1 C1          2.0499    1.8979   -0.1886 C.3       1 <0>        -0.1698
      2 C2          1.5138    0.4679   -0.0953 C.3       1 <0>         0.1127
      3 N1          1.9998   -0.1563    1.1377 N.am      1 <0>        -0.6197
      4 C3          1.2193   -0.0444    2.3724 C.3       1 <0>         0.0574
      5 C4          3.1650   -0.8336    1.1361 C.2       1 <0>         0.5880
      6 O1          3.8643   -0.8391    0.1402 O.2       1 <0>        -0.5159
      7 C5          3.5905   -1.5644    2.3354 C.2       1 <0>        -0.0507
      8 C6          4.7979   -2.1775    2.5128 C.2       1 <0>        -0.0584
      9 C7          4.7850   -2.7545    3.7998 C.2       1 <0>        -0.1406
     10 C8          3.5590   -2.4684    4.3623 C.2       1 <0>         0.0496
     11 N2          2.8436   -1.7450    3.4775 N.pl3     1 <0>        -0.5359
     12 H1          1.9456   -1.4079    3.6218 H         1 <0>         0.4250
     13 C9          5.8809   -3.5226    4.4282 C.2       1 <0>         0.1878
     14 C10         6.6178   -4.5414    3.8401 C.2       1 <0>        -0.1955
     15 C11         7.5509   -4.9864    4.7940 C.2       1 <0>         0.0722
     16 N3          7.3932   -4.2876    5.8862 N.2       1 <0>        -0.2883
     17 N4          6.3627   -3.3607    5.6917 N.pl3     1 <0>        -0.4689
     18 H2          6.0455   -2.7166    6.3439 H         1 <0>         0.4401
     19 C12         6.4519   -5.0638    2.4626 C.ar      1 <0>         0.0170
     20 C13         5.1909   -5.4459    2.0063 C.ar      1 <0>        -0.0976
     21 C14         5.0417   -5.9311    0.7232 C.ar      1 <0>        -0.1037
     22 C15         6.1401   -6.0390   -0.1108 C.ar      1 <0>        -0.1141
     23 C16         7.3948   -5.6618    0.3363 C.ar      1 <0>        -0.0304
     24 C17         7.5548   -5.1693    1.6170 C.ar      1 <0>        -0.1034
     25 Cl1         8.7681   -5.8015   -0.7164 Cl        1 <0>        -0.0720
     26 H3          3.1397    1.8776   -0.1968 H         1 <0>         0.0622
     27 H4          1.6882    2.3624   -1.1060 H         1 <0>         0.0696
     28 H5          1.7037    2.4725    0.6705 H         1 <0>         0.0547
     29 H6          0.4240    0.4883   -0.0871 H         1 <0>         0.0798
     30 H7          1.8600   -0.1067   -0.9544 H         1 <0>         0.0875
     31 H8          0.5921   -0.9284    2.4872 H         1 <0>         0.0623
     32 H9          1.8954    0.0344    3.2237 H         1 <0>         0.0736
     33 H10         0.5897    0.8441    2.3249 H         1 <0>         0.0892
     34 H11         5.6098   -2.2139    1.8014 H         1 <0>         0.1532
     35 H12         3.2295   -2.7690    5.3458 H         1 <0>         0.1784
     36 H13         8.2759   -5.7734    4.6478 H         1 <0>         0.1873
     37 H14         4.3325   -5.3626    2.6563 H         1 <0>         0.1240
     38 H15         4.0653   -6.2275    0.3694 H         1 <0>         0.1295
     39 H16         6.0184   -6.4193   -1.1142 H         1 <0>         0.1309
     40 H17         8.5330   -4.8706    1.9637 H         1 <0>         0.1330
@<TRIPOS>BOND
     1    1    2 1
     2    1   26 1
     3    1   27 1
     4    1   28 1
     5    2    3 1
     6    2   29 1
     7    2   30 1
     8    3    4 1
     9    3    5 am
    10    4   31 1
    11    4   32 1
    12    4   33 1
    13    5    6 2
    14    5    7 1
    15    7   11 1
    16    7    8 2
    17    8    9 1
    18    8   34 1
    19    9   10 2
    20    9   13 1
    21   10   11 1
    22   10   35 1
    23   11   12 1
    24   13   17 1
    25   13   14 2
    26   14   15 1
    27   14   19 1
    28   15   16 2
    29   15   36 1
    30   16   17 1
    31   17   18 1
    32   19   24 ar
    33   19   20 ar
    34   20   21 ar
    35   20   37 1
    36   21   22 ar
    37   21   38 1
    38   22   23 ar
    39   22   39 1
    40   23   24 ar
    41   23   25 1
    42   24   40 1
@<TRIPOS>MOLECULE
CHEMBL375525__1
   40    42     0     0     0
SMALL
USER_CHARGES

@<TRIPOS>ATOM
      1 C1         -0.4310    1.6969    0.2465 C.3       1 <0>        -0.1693
      2 C2         -0.2226    0.1945    0.0459 C.3       1 <0>         0.1128
      3 N1         -1.5161   -0.4905    0.1074 N.am      1 <0>        -0.6204
      4 C3         -2.3008   -0.6849   -1.1144 C.3       1 <0>         0.0587
      5 C4         -1.9843   -0.9418    1.2879 C.2       1 <0>         0.5900
      6 O1         -1.3896   -0.6825    2.3175 O.2       1 <0>        -0.5206
      7 C5         -3.2109   -1.7457    1.3317 C.2       1 <0>        -0.0558
      8 C6         -3.8802   -2.1299    2.4598 C.2       1 <0>        -0.0689
      9 C7         -4.9950   -2.8825    2.0426 C.2       1 <0>        -0.1166
     10 C8         -4.9679   -2.9316    0.6777 C.2       1 <0>         0.0640
     11 N2         -3.8936   -2.2407    0.2436 N.pl3     1 <0>        -0.5394
     12 H1         -3.6418   -2.1151   -0.6847 H         1 <0>         0.4232
     13 C9         -6.0123   -3.5078    2.9240 C.2       1 <0>         0.1759
     14 C10        -7.3931   -3.6477    2.6367 C.2       1 <0>        -0.2036
     15 C11        -7.9713   -4.2732    3.7007 C.2       1 <0>         0.0821
     16 N3         -7.0067   -4.5153    4.6115 N.pl3     1 <0>        -0.4698
     17 N4         -5.7919   -4.0356    4.1075 N.2       1 <0>        -0.2802
     18 H2         -7.1328   -4.9505    5.4692 H         1 <0>         0.4445
     19 C12        -8.0830   -3.1956    1.4035 C.ar      1 <0>         0.0159
     20 C13        -7.8963   -1.8967    0.9340 C.ar      1 <0>        -0.1004
     21 C14        -8.5399   -1.4809   -0.2138 C.ar      1 <0>        -0.1050
     22 C15        -9.3696   -2.3504   -0.8985 C.ar      1 <0>        -0.1159
     23 C16        -9.5594   -3.6415   -0.4371 C.ar      1 <0>        -0.0319
     24 C17        -8.9150   -4.0698    0.7076 C.ar      1 <0>        -0.1070
     25 Cl1       -10.6033   -4.7263   -1.3015 Cl        1 <0>        -0.0707
     26 H3          0.5314    2.2065    0.2008 H         1 <0>         0.0686
     27 H4         -1.0832    2.0811   -0.5378 H         1 <0>         0.0548
     28 H5         -0.8897    1.8734    1.2194 H         1 <0>         0.0621
     29 H6          0.2362    0.0180   -0.9270 H         1 <0>         0.0791
     30 H7          0.4296   -0.1897    0.8302 H         1 <0>         0.0864
     31 H8         -2.1021   -1.6769   -1.5198 H         1 <0>         0.0608
     32 H9         -3.3620   -0.5927   -0.8831 H         1 <0>         0.0749
     33 H10        -2.0222    0.0704   -1.8492 H         1 <0>         0.0879
     34 H11        -3.6056   -1.9002    3.4787 H         1 <0>         0.1522
     35 H12        -5.6885   -3.4356    0.0507 H         1 <0>         0.1751
     36 H13        -9.0161   -4.5290    3.7974 H         1 <0>         0.1812
     37 H14        -7.2493   -1.2164    1.4678 H         1 <0>         0.1296
     38 H15        -8.3956   -0.4744   -0.5781 H         1 <0>         0.1316
     39 H16        -9.8715   -2.0206   -1.7962 H         1 <0>         0.1317
     40 H17        -9.0599   -5.0786    1.0648 H         1 <0>         0.1326
@<TRIPOS>BOND
     1    1    2 1
     2    1   26 1
     3    1   27 1
     4    1   28 1
     5    2    3 1
     6    2   29 1
     7    2   30 1
     8    3    4 1
     9    3    5 am
    10    4   31 1
    11    4   32 1
    12    4   33 1
    13    5    6 2
    14    5    7 1
    15    7   11 1
    16    7    8 2
    17    8    9 1
    18    8   34 1
    19    9   10 2
    20    9   13 1
    21   10   11 1
    22   10   35 1
    23   11   12 1
    24   13   17 2
    25   13   14 1
    26   14   19 1
    27   14   15 2
    28   15   36 1
    29   15   16 1
    30   16   17 1
    31   16   18 1
    32   19   24 ar
    33   19   20 ar
    34   20   21 ar
    35   20   37 1
    36   21   22 ar
    37   21   38 1
    38   22   23 ar
    39   22   39 1
    40   23   24 ar
    41   23   25 1
    42   24   40 1
@<TRIPOS>MOLECULE
CHEMBL222249
   44    47     0     0     0
SMALL
USER_CHARGES

@<TRIPOS>ATOM
      1 C1          0.4585    0.4884    0.9561 C.ar      1 <0>        -0.1055
      2 C2          1.6076    1.2518    1.0011 C.ar      1 <0>        -0.0998
      3 C3          2.4549    1.2978   -0.1049 C.ar      1 <0>         0.0179
      4 C4          2.1363    0.5716   -1.2514 C.ar      1 <0>        -0.1040
      5 C5          0.9840   -0.1888   -1.2854 C.ar      1 <0>        -0.0324
      6 C6          0.1465   -0.2303   -0.1835 C.ar      1 <0>        -0.1158
      7 Cl1         0.5845   -1.0937   -2.7121 Cl        1 <0>        -0.0709
      8 C7          3.6902    2.1165   -0.0621 C.2       1 <0>        -0.2040
      9 C8          4.0508    3.1299   -0.9685 C.2       1 <0>         0.0722
     10 N1          5.2047    3.6215   -0.6039 N.2       1 <0>        -0.2869
     11 N2          5.6429    2.9556    0.5466 N.pl3     1 <0>        -0.4646
     12 H1          6.4701    3.1267    1.0233 H         1 <0>         0.4424
     13 C9          4.7029    2.0294    0.8832 C.2       1 <0>         0.1917
     14 C10         4.7529    1.1045    2.0356 C.2       1 <0>        -0.1448
     15 C11         5.0814    1.4409    3.3654 C.2       1 <0>        -0.0774
     16 C12         5.0056    0.2925    4.1007 C.2       1 <0>        -0.0525
     17 N3          4.6408   -0.7344    3.2595 N.pl3     1 <0>        -0.5287
     18 H2          4.5146   -1.6594    3.5227 H         1 <0>         0.4217
     19 C13         4.4814   -0.2472    2.0125 C.2       1 <0>         0.0824
     20 C14         5.2686    0.1735    5.5394 C.2       1 <0>         0.5911
     21 O1          5.5864    1.1561    6.1831 O.2       1 <0>        -0.5193
     22 N4          5.1581   -1.0240    6.1478 N.am      1 <0>        -0.7300
     23 C15         5.4207   -1.1428    7.5842 C.3       1 <0>         0.1635
     24 C16         5.2292   -2.5747    8.0131 C.ar      1 <0>        -0.0960
     25 C17         3.9859   -3.0093    8.4336 C.ar      1 <0>        -0.0796
     26 C18         3.8079   -4.3221    8.8275 C.ar      1 <0>        -0.1253
     27 C19         4.8748   -5.2034    8.8007 C.ar      1 <0>         0.0791
     28 C20         6.1215   -4.7678    8.3786 C.ar      1 <0>         0.0681
     29 C21         6.2954   -3.4537    7.9802 C.ar      1 <0>        -0.1067
     30 F1          7.1645   -5.6261    8.3520 F         1 <0>        -0.1241
     31 F2          4.7017   -6.4867    9.1859 F         1 <0>        -0.1237
     32 H3         -0.1960    0.4488    1.8142 H         1 <0>         0.1305
     33 H4          1.8497    1.8128    1.8916 H         1 <0>         0.1271
     34 H5          2.7889    0.6038   -2.1113 H         1 <0>         0.1339
     35 H6         -0.7536   -0.8264   -0.2139 H         1 <0>         0.1310
     36 H7          3.4713    3.4477   -1.8226 H         1 <0>         0.1869
     37 H8          5.3438    2.4220    3.7330 H         1 <0>         0.1535
     38 H9          4.1925   -0.8188    1.1429 H         1 <0>         0.1805
     39 H10         4.9048   -1.8072    5.6347 H         1 <0>         0.3966
     40 H11         6.4452   -0.8349    7.7930 H         1 <0>         0.0868
     41 H12         4.7300   -0.5034    8.1339 H         1 <0>         0.0891
     42 H13         3.1530   -2.3221    8.4548 H         1 <0>         0.1450
     43 H14         2.8363   -4.6602    9.1564 H         1 <0>         0.1514
     44 H15         7.2652   -3.1140    7.6476 H         1 <0>         0.1496
@<TRIPOS>BOND
     1    1    6 ar
     2    1    2 ar
     3    1   32 1
     4    2    3 ar
     5    2   33 1
     6    3    4 ar
     7    3    8 1
     8    4    5 ar
     9    4   34 1
    10    5    6 ar
    11    5    7 1
    12    6   35 1
    13    8   13 2
    14    8    9 1
    15    9   10 2
    16    9   36 1
    17   10   11 1
    18   11   12 1
    19   11   13 1
    20   13   14 1
    21   14   19 2
    22   14   15 1
    23   15   16 2
    24   15   37 1
    25   16   17 1
    26   16   20 1
    27   17   18 1
    28   17   19 1
    29   19   38 1
    30   20   21 2
    31   20   22 am
    32   22   23 1
    33   22   39 1
    34   23   24 1
    35   23   40 1
    36   23   41 1
    37   24   29 ar
    38   24   25 ar
    39   25   26 ar
    40   25   42 1
    41   26   27 ar
    42   26   43 1
    43   27   28 ar
    44   27   31 1
    45   28   29 ar
    46   28   30 1
    47   29   44 1
@<TRIPOS>MOLECULE
CHEMBL222249__1
   44    47     0     0     0
SMALL
USER_CHARGES

@<TRIPOS>ATOM
      1 C1         -0.0167    1.3786    0.0096 C.ar      1 <0>        -0.1038
      2 C2          1.1676    2.0878    0.0021 C.ar      1 <0>        -0.1106
      3 C3          2.3840    1.4085   -0.0131 C.ar      1 <0>         0.0145
      4 C4          2.3983    0.0151   -0.0207 C.ar      1 <0>        -0.0966
      5 C5          1.2076   -0.6849   -0.0131 C.ar      1 <0>        -0.0327
      6 C6          0.0021   -0.0041    0.0020 C.ar      1 <0>        -0.1163
      7 Cl1         1.2227   -2.4208   -0.0230 Cl        1 <0>        -0.0706
      8 C7          3.6597    2.1660   -0.0217 C.2       1 <0>        -0.2030
      9 C8          3.9817    3.1931   -0.8578 C.2       1 <0>         0.0825
     10 N1          5.2257    3.6075   -0.5427 N.pl3     1 <0>        -0.4697
     11 N2          5.6983    2.8234    0.5164 N.2       1 <0>        -0.2800
     12 H1          5.7109    4.3266   -0.9767 H         1 <0>         0.4446
     13 C9          4.7639    1.9580    0.8421 C.2       1 <0>         0.1750
     14 C10         4.8515    0.9411    1.9196 C.2       1 <0>        -0.1176
     15 C11         6.0090    0.2429    2.3146 C.2       1 <0>        -0.0660
     16 C12         5.6459   -0.5903    3.3354 C.2       1 <0>        -0.0582
     17 N3          4.3004   -0.4148    3.5685 N.pl3     1 <0>        -0.5327
     18 H2          3.7794   -0.8811    4.2408 H         1 <0>         0.4195
     19 C13         3.8255    0.5150    2.7144 C.2       1 <0>         0.0722
     20 C14         6.5335   -1.5100    4.0557 C.2       1 <0>         0.5929
     21 O1          7.7114   -1.5775    3.7574 O.2       1 <0>        -0.5203
     22 N4          6.0445   -2.2801    5.0478 N.am      1 <0>        -0.7312
     23 C15         6.9308   -3.1985    5.7669 C.3       1 <0>         0.1635
     24 C16         6.1431   -3.9366    6.8185 C.ar      1 <0>        -0.0945
     25 C17         6.0276   -3.4097    8.0915 C.ar      1 <0>        -0.0799
     26 C18         5.3057   -4.0848    9.0575 C.ar      1 <0>        -0.1256
     27 C19         4.6970   -5.2896    8.7509 C.ar      1 <0>         0.0780
     28 C20         4.8125   -5.8177    7.4742 C.ar      1 <0>         0.0680
     29 C21         5.5321   -5.1368    6.5076 C.ar      1 <0>        -0.1064
     30 F1          4.2197   -6.9937    7.1727 F         1 <0>        -0.1245
     31 F2          3.9916   -5.9503    9.6948 F         1 <0>        -0.1243
     32 H3         -0.9598    1.9047    0.0260 H         1 <0>         0.1327
     33 H4          1.1513    3.1677    0.0077 H         1 <0>         0.1288
     34 H5          3.3383   -0.5164   -0.0328 H         1 <0>         0.1338
     35 H6         -0.9269   -0.5549    0.0079 H         1 <0>         0.1317
     36 H7          3.3526    3.6020   -1.6347 H         1 <0>         0.1815
     37 H8          6.9969    0.3459    1.8906 H         1 <0>         0.1535
     38 H9          2.8041    0.8626    2.6654 H         1 <0>         0.1752
     39 H10         5.1056   -2.2264    5.2856 H         1 <0>         0.3964
     40 H11         7.3595   -3.9139    5.0652 H         1 <0>         0.0863
     41 H12         7.7313   -2.6325    6.2433 H         1 <0>         0.0883
     42 H13         6.5023   -2.4698    8.3313 H         1 <0>         0.1449
     43 H14         5.2168   -3.6725   10.0518 H         1 <0>         0.1509
     44 H15         5.6197   -5.5453    5.5117 H         1 <0>         0.1499
@<TRIPOS>BOND
     1    1    6 ar
     2    1    2 ar
     3    1   32 1
     4    2    3 ar
     5    2   33 1
     6    3    4 ar
     7    3    8 1
     8    4    5 ar
     9    4   34 1
    10    5    6 ar
    11    5    7 1
    12    6   35 1
    13    8   13 1
    14    8    9 2
    15    9   36 1
    16    9   10 1
    17   10   11 1
    18   10   12 1
    19   11   13 2
    20   13   14 1
    21   14   19 2
    22   14   15 1
    23   15   16 2
    24   15   37 1
    25   16   17 1
    26   16   20 1
    27   17   18 1
    28   17   19 1
    29   19   38 1
    30   20   21 2
    31   20   22 am
    32   22   23 1
    33   22   39 1
    34   23   24 1
    35   23   40 1
    36   23   41 1
    37   24   29 ar
    38   24   25 ar
    39   25   26 ar
    40   25   42 1
    41   26   27 ar
    42   26   43 1
    43   27   28 ar
    44   27   31 1
    45   28   29 ar
    46   28   30 1
    47   29   44 1
@<TRIPOS>MOLECULE
CHEMBL576048
   54    57     0     0     0
SMALL
USER_CHARGES

@<TRIPOS>ATOM
      1 C1          0.2684    1.4995   -0.0119 C.3       1 <0>        -0.1026
      2 C2          0.2117   -0.0065   -0.0142 C.ar      1 <0>        -0.2347
      3 C3         -0.0129   -0.7042   -1.1866 C.ar      1 <0>         0.1907
      4 N1         -0.0565   -2.0272   -1.1550 N.ar      1 <0>        -0.5596
      5 C4          0.1116   -2.6886   -0.0189 C.ar      1 <0>         0.5583
      6 N2          0.3285   -2.0604    1.1260 N.ar      1 <0>        -0.5484
      7 C5          0.3908   -0.7309    1.1683 C.ar      1 <0>         0.3006
      8 C6          0.6404   -0.0298    2.4496 C.2       1 <0>        -0.1555
      9 C7          0.1913   -0.4314    3.7241 C.2       1 <0>        -0.0510
     10 C8          0.6439    0.4952    4.6191 C.2       1 <0>        -0.0601
     11 N3          1.3557    1.4495    3.9274 N.pl3     1 <0>        -0.5286
     12 H1          1.7882    2.2237    4.3204 H         1 <0>         0.4213
     13 C9          1.3599    1.1329    2.6186 C.2       1 <0>         0.0726
     14 C10         0.4115    0.4773    6.0680 C.2       1 <0>         0.5928
     15 O1         -0.2370   -0.4223    6.5691 O.2       1 <0>        -0.5224
     16 N4          0.9162    1.4571    6.8437 N.am      1 <0>        -0.7196
     17 C11         0.6841    1.4392    8.2901 C.3       1 <0>         0.1936
     18 H2          0.6789    0.4085    8.6445 H         1 <0>         0.1152
     19 C12        -0.6652    2.0913    8.5982 C.3       1 <0>         0.0670
     20 O2         -0.6190    3.4738    8.2398 O.3       1 <0>        -0.5679
     21 C13         1.7817    2.2036    8.9844 C.ar      1 <0>        -0.0800
     22 C14         2.2580    3.3802    8.4362 C.ar      1 <0>        -0.0879
     23 C15         3.2647    4.0818    9.0725 C.ar      1 <0>        -0.1063
     24 C16         3.7961    3.6073   10.2571 C.ar      1 <0>        -0.1059
     25 C17         3.3200    2.4302   10.8060 C.ar      1 <0>        -0.0330
     26 C18         2.3080    1.7314   10.1717 C.ar      1 <0>        -0.0995
     27 Cl1         3.9869    1.8337   12.2936 Cl        1 <0>        -0.0646
     28 N5          0.0586   -4.0726   -0.0296 N.pl3     1 <0>        -0.6350
     29 C19        -0.0433   -4.7599   -1.2452 C.ar      1 <0>         0.1487
     30 C20         0.5350   -4.2337   -2.3923 C.ar      1 <0>        -0.0815
     31 C21         0.4331   -4.9136   -3.5905 C.ar      1 <0>        -0.0951
     32 C22        -0.2451   -6.1183   -3.6494 C.ar      1 <0>        -0.0306
     33 C23        -0.8232   -6.6466   -2.5085 C.ar      1 <0>        -0.1228
     34 C24        -0.7192   -5.9737   -1.3048 C.ar      1 <0>         0.0782
     35 F1         -1.2786   -6.4919   -0.1895 F         1 <0>        -0.1300
     36 Cl2        -0.3715   -6.9685   -5.1577 Cl        1 <0>        -0.0570
     37 H3          1.2937    1.8248   -0.1878 H         1 <0>         0.0709
     38 H4         -0.3765    1.8885   -0.7999 H         1 <0>         0.0710
     39 H5         -0.0712    1.8744    0.9536 H         1 <0>         0.0742
     40 H6         -0.1516   -0.1757   -2.1181 H         1 <0>         0.1725
     41 H7         -0.3999   -1.3065    3.9500 H         1 <0>         0.1555
     42 H8          1.8431    1.6963    1.8341 H         1 <0>         0.1849
     43 H9          1.4331    2.1742    6.4442 H         1 <0>         0.3965
     44 H10        -1.4483    1.5936    8.0262 H         1 <0>         0.0600
     45 H11        -0.8786    1.9989    9.6631 H         1 <0>         0.0602
     46 H12        -1.4428    3.9515    8.4082 H         1 <0>         0.3826
     47 H13         1.8436    3.7510    7.5104 H         1 <0>         0.1283
     48 H14         3.6364    5.0008    8.6438 H         1 <0>         0.1343
     49 H15         4.5832    4.1553   10.7538 H         1 <0>         0.1350
     50 H16         1.9327    0.8147   10.6021 H         1 <0>         0.1359
     51 H17         0.0921   -4.5657    0.8050 H         1 <0>         0.4285
     52 H18         1.0640   -3.2932   -2.3480 H         1 <0>         0.1560
     53 H19         0.8831   -4.5040   -4.4828 H         1 <0>         0.1439
     54 H20        -1.3519   -7.5870   -2.5572 H         1 <0>         0.1502
@<TRIPOS>BOND
     1    1    2 1
     2    1   37 1
     3    1   38 1
     4    1   39 1
     5    2    7 ar
     6    2    3 ar
     7    3    4 ar
     8    3   40 1
     9    4    5 ar
    10    5    6 ar
    11    5   28 1
    12    6    7 ar
    13    7    8 1
    14    8   13 2
    15    8    9 1
    16    9   10 2
    17    9   41 1
    18   10   11 1
    19   10   14 1
    20   11   12 1
    21   11   13 1
    22   13   42 1
    23   14   15 2
    24   14   16 am
    25   16   17 1
    26   16   43 1
    27   17   18 1
    28   17   19 1
    29   17   21 1
    30   19   20 1
    31   19   44 1
    32   19   45 1
    33   20   46 1
    34   21   26 ar
    35   21   22 ar
    36   22   23 ar
    37   22   47 1
    38   23   24 ar
    39   23   48 1
    40   24   25 ar
    41   24   49 1
    42   25   26 ar
    43   25   27 1
    44   26   50 1
    45   28   29 1
    46   28   51 1
    47   29   34 ar
    48   29   30 ar
    49   30   31 ar
    50   30   52 1
    51   31   32 ar
    52   31   53 1
    53   32   33 ar
    54   32   36 1
    55   33   34 ar
    56   33   54 1
    57   34   35 1
@<TRIPOS>MOLECULE
CHEMBL576683
   57    61     0     0     0
SMALL
USER_CHARGES

@<TRIPOS>ATOM
      1 C1          0.2687    1.4994   -0.0116 C.3       1 <0>        -0.1026
      2 C2          0.2120   -0.0066   -0.0141 C.ar      1 <0>        -0.2345
      3 C3         -0.0127   -0.7042   -1.1865 C.ar      1 <0>         0.1909
      4 N1         -0.0569   -2.0271   -1.1551 N.ar      1 <0>        -0.5593
      5 C4          0.1107   -2.6887   -0.0189 C.ar      1 <0>         0.5585
      6 N2          0.3281   -2.0606    1.1260 N.ar      1 <0>        -0.5481
      7 C5          0.3910   -0.7311    1.1683 C.ar      1 <0>         0.3008
      8 C6          0.6407   -0.0302    2.4497 C.2       1 <0>        -0.1557
      9 C7          0.1915   -0.4318    3.7242 C.2       1 <0>        -0.0510
     10 C8          0.6435    0.4950    4.6192 C.2       1 <0>        -0.0601
     11 N3          1.3550    1.4496    3.9275 N.pl3     1 <0>        -0.5286
     12 H1          1.7873    2.2239    4.3205 H         1 <0>         0.4213
     13 C9          1.3603    1.1324    2.6189 C.2       1 <0>         0.0728
     14 C10         0.4108    0.4772    6.0680 C.2       1 <0>         0.5927
     15 O1         -0.2373   -0.4226    6.5691 O.2       1 <0>        -0.5223
     16 N4          0.9149    1.4573    6.8437 N.am      1 <0>        -0.7196
     17 C11         0.6826    1.4395    8.2900 C.3       1 <0>         0.1936
     18 H2          0.6778    0.4088    8.6445 H         1 <0>         0.1151
     19 C12        -0.6671    2.0910    8.5978 C.3       1 <0>         0.0670
     20 O2         -0.6214    3.4735    8.2393 O.3       1 <0>        -0.5678
     21 C13         1.7797    2.2045    8.9845 C.ar      1 <0>        -0.0799
     22 C14         2.2556    3.3812    8.4363 C.ar      1 <0>        -0.0879
     23 C15         3.2618    4.0834    9.0726 C.ar      1 <0>        -0.1063
     24 C16         3.7933    3.6092   10.2574 C.ar      1 <0>        -0.1060
     25 C17         3.3176    2.4320   10.8063 C.ar      1 <0>        -0.0330
     26 C18         2.3060    1.7326   10.1720 C.ar      1 <0>        -0.0994
     27 Cl1         3.9844    1.8359   12.2942 Cl        1 <0>        -0.0646
     28 N5          0.0566   -4.0725   -0.0296 N.pl3     1 <0>        -0.6363
     29 C19        -0.0459   -4.7600   -1.2457 C.ar      1 <0>         0.2180
     30 C20         0.5331   -4.2338   -2.3927 C.ar      1 <0>        -0.1033
     31 C21         0.4317   -4.9115   -3.5926 C.ar      1 <0>        -0.0744
     32 C22        -0.2452   -6.1153   -3.6563 C.ar      1 <0>        -0.1032
     33 C23        -0.8267   -6.6489   -2.5160 C.ar      1 <0>         0.0515
     34 C24        -0.7229   -5.9736   -1.3047 C.ar      1 <0>        -0.0172
     35 O3         -1.3657   -6.6997   -0.3427 O.3       1 <0>        -0.2873
     36 C25        -2.2065   -7.6246   -1.0577 C.3       1 <0>         0.5732
     37 O4         -1.5361   -7.7981   -2.3161 O.3       1 <0>        -0.2852
     38 F1         -2.2975   -8.8393   -0.3696 F         1 <0>        -0.1156
     39 F2         -3.4776   -7.0770   -1.2615 F         1 <0>        -0.1537
     40 H3          1.2941    1.8246   -0.1874 H         1 <0>         0.0710
     41 H4         -0.3760    1.8885   -0.7996 H         1 <0>         0.0711
     42 H5         -0.0708    1.8742    0.9539 H         1 <0>         0.0742
     43 H6         -0.1510   -0.1755   -2.1181 H         1 <0>         0.1730
     44 H7         -0.3993   -1.3072    3.9501 H         1 <0>         0.1554
     45 H8          1.8440    1.6956    1.8344 H         1 <0>         0.1850
     46 H9          1.4316    2.1746    6.4442 H         1 <0>         0.3965
     47 H10        -1.4498    1.5929    8.0258 H         1 <0>         0.0600
     48 H11        -0.8806    1.9986    9.6627 H         1 <0>         0.0601
     49 H12        -1.4454    3.9509    8.4075 H         1 <0>         0.3826
     50 H13         1.8412    3.7517    7.5103 H         1 <0>         0.1283
     51 H14         3.6332    5.0025    8.6440 H         1 <0>         0.1343
     52 H15         4.5800    4.1576   10.7542 H         1 <0>         0.1350
     53 H16         1.9311    0.8158   10.6023 H         1 <0>         0.1358
     54 H17         0.0897   -4.5657    0.8050 H         1 <0>         0.4294
     55 H18         1.0628   -3.2937   -2.3472 H         1 <0>         0.1588
     56 H19         0.8824   -4.4995   -4.4834 H         1 <0>         0.1508
     57 H20        -0.3216   -6.6413   -4.5964 H         1 <0>         0.1458
@<TRIPOS>BOND
     1    1    2 1
     2    1   40 1
     3    1   41 1
     4    1   42 1
     5    2    7 ar
     6    2    3 ar
     7    3    4 ar
     8    3   43 1
     9    4    5 ar
    10    5    6 ar
    11    5   28 1
    12    6    7 ar
    13    7    8 1
    14    8   13 2
    15    8    9 1
    16    9   10 2
    17    9   44 1
    18   10   11 1
    19   10   14 1
    20   11   12 1
    21   11   13 1
    22   13   45 1
    23   14   15 2
    24   14   16 am
    25   16   17 1
    26   16   46 1
    27   17   18 1
    28   17   19 1
    29   17   21 1
    30   19   20 1
    31   19   47 1
    32   19   48 1
    33   20   49 1
    34   21   26 ar
    35   21   22 ar
    36   22   23 ar
    37   22   50 1
    38   23   24 ar
    39   23   51 1
    40   24   25 ar
    41   24   52 1
    42   25   26 ar
    43   25   27 1
    44   26   53 1
    45   28   29 1
    46   28   54 1
    47   29   34 ar
    48   29   30 ar
    49   30   31 ar
    50   30   55 1
    51   31   32 ar
    52   31   56 1
    53   32   33 ar
    54   32   57 1
    55   33   37 1
    56   33   34 ar
    57   34   35 1
    58   35   36 1
    59   36   37 1
    60   36   38 1
    61   36   39 1
@<TRIPOS>MOLECULE
CHEMBL235345
   44    48     0     0     0
SMALL
USER_CHARGES

@<TRIPOS>ATOM
      1 C1          0.6498    3.8207    1.6985 C.ar      1 <0>        -0.1190
      2 C2          1.9460    4.3000    1.7306 C.ar      1 <0>        -0.1170
      3 C3          3.0045    3.4476    1.4780 C.ar      1 <0>        -0.1091
      4 C4          2.7669    2.1159    1.1936 C.ar      1 <0>        -0.0592
      5 C5          1.4707    1.6364    1.1623 C.ar      1 <0>        -0.1171
      6 C6          0.4121    2.4890    1.4136 C.ar      1 <0>        -0.1152
      7 C7          3.9208    1.1869    0.9171 C.3       1 <0>        -0.1113
      8 H1          4.8245    1.6608    0.5340 H         1 <0>         0.1216
      9 C8          3.5906   -0.2183    0.4099 C.3       1 <0>        -0.1746
     10 C9          4.0936   -0.0197    1.8419 C.3       1 <0>         0.0860
     11 H2          3.3726   -0.1415    2.6503 H         1 <0>         0.1522
     12 N1          5.4610   -0.4499    2.1443 N.pl3     1 <0>        -0.6091
     13 C10         5.7230   -1.1365    3.2996 C.2       1 <0>         0.4828
     14 N2          4.8752   -1.5020    4.2481 N.2       1 <0>        -0.6588
     15 C11         5.2561   -2.1645    5.3179 C.2       1 <0>         0.5502
     16 O1          4.4648   -2.4964    6.1857 O.2       1 <0>        -0.4593
     17 C12         6.7008   -2.4864    5.4114 C.2       1 <0>        -0.2271
     18 C13         7.3826   -3.1486    6.3789 C.2       1 <0>         0.0525
     19 C14         8.8500   -3.2055    6.3355 C.ar      1 <0>        -0.0870
     20 C15         9.5633   -2.3015    5.5227 C.ar      1 <0>        -0.0872
     21 C16        10.9176   -2.3351    5.4666 C.ar      1 <0>        -0.0836
     22 C17        11.6341   -3.2808    6.2255 C.ar      1 <0>         0.1400
     23 C18        10.9275   -4.1958    7.0472 C.ar      1 <0>        -0.1098
     24 C19         9.5283   -4.1466    7.1003 C.ar      1 <0>        -0.0501
     25 C20        11.6538   -5.1378    7.8022 C.ar      1 <0>        -0.0497
     26 C21        13.0166   -5.1269    7.7078 C.ar      1 <0>        -0.1750
     27 C22        13.6479   -4.2006    6.8813 C.ar      1 <0>         0.1417
     28 N3         12.9686   -3.3248    6.1800 N.ar      1 <0>        -0.4764
     29 S1          7.2898   -1.7617    3.8861 S.3       1 <0>        -0.0409
     30 H3         -0.1770    4.4856    1.9003 H         1 <0>         0.1233
     31 H4          2.1316    5.3404    1.9528 H         1 <0>         0.1241
     32 H5          4.0172    3.8222    1.5024 H         1 <0>         0.1223
     33 H6          1.2850    0.5960    0.9398 H         1 <0>         0.1248
     34 H7         -0.6006    2.1145    1.3888 H         1 <0>         0.1245
     35 H8          2.5387   -0.4709    0.2762 H         1 <0>         0.1157
     36 H9          4.2773   -0.6690   -0.3066 H         1 <0>         0.1091
     37 H10         6.1807   -0.2483    1.5260 H         1 <0>         0.4278
     38 H11         6.8468   -3.6341    7.1811 H         1 <0>         0.1636
     39 H12         9.0237   -1.5724    4.9365 H         1 <0>         0.1402
     40 H13        11.4482   -1.6351    4.8382 H         1 <0>         0.1426
     41 H14         8.9820   -4.8364    7.7264 H         1 <0>         0.1426
     42 H15        11.1473   -5.8486    8.4383 H         1 <0>         0.1435
     43 H16        13.6037   -5.8352    8.2735 H         1 <0>         0.1423
     44 H17        14.7259   -4.2033    6.8162 H         1 <0>         0.1634
@<TRIPOS>BOND
     1    1    6 ar
     2    1    2 ar
     3    1   30 1
     4    2    3 ar
     5    2   31 1
     6    3    4 ar
     7    3   32 1
     8    4    5 ar
     9    4    7 1
    10    5    6 ar
    11    5   33 1
    12    6   34 1
    13    7    8 1
    14    7   10 1
    15    7    9 1
    16    9   10 1
    17    9   35 1
    18    9   36 1
    19   10   11 1
    20   10   12 1
    21   12   13 1
    22   12   37 1
    23   13   29 1
    24   13   14 2
    25   14   15 1
    26   15   16 2
    27   15   17 1
    28   17   18 2
    29   17   29 1
    30   18   19 1
    31   18   38 1
    32   19   24 ar
    33   19   20 ar
    34   20   21 ar
    35   20   39 1
    36   21   22 ar
    37   21   40 1
    38   22   28 ar
    39   22   23 ar
    40   23   24 ar
    41   23   25 ar
    42   24   41 1
    43   25   26 ar
    44   25   42 1
    45   26   27 ar
    46   26   43 1
    47   27   28 ar
    48   27   44 1
@<TRIPOS>MOLECULE
CHEMBL235345__1
   43    47     0     0     0
SMALL
USER_CHARGES

@<TRIPOS>ATOM
      1 C1          0.1894    3.1660    2.5996 C.ar      1 <0>        -0.1354
      2 C2          1.4506    3.7264    2.5207 C.ar      1 <0>        -0.1205
      3 C3          2.5352    2.9418    2.1759 C.ar      1 <0>        -0.1164
      4 C4          2.3586    1.5967    1.9103 C.ar      1 <0>        -0.0340
      5 C5          1.0976    1.0362    1.9901 C.ar      1 <0>        -0.1217
      6 C6          0.0128    1.8211    2.3336 C.ar      1 <0>        -0.1184
      7 C7          3.5409    0.7416    1.5334 C.3       1 <0>        -0.1154
      8 H1          4.3764    1.2704    1.0746 H         1 <0>         0.1112
      9 C8          3.2577   -0.6834    1.0537 C.3       1 <0>        -0.1820
     10 C9          3.8688   -0.4485    2.4374 C.3       1 <0>         0.0793
     11 H2          3.2294   -0.6129    3.3047 H         1 <0>         0.0878
     12 N1          5.2816   -0.7904    2.6197 N.2       1 <0>        -0.5702
     13 C10         5.6331   -1.8459    3.4179 C.2       1 <0>         0.4189
     14 N2          4.8416   -2.6649    4.0923 N.2       1 <0>        -0.7229
     15 C11         5.3077   -3.6493    4.8288 C.2       1 <0>         0.5270
     16 O1          4.5677   -4.3983    5.4459 O.2       1 <0>        -0.5547
     17 C12         6.7826   -3.7992    4.8674 C.2       1 <0>        -0.1599
     18 C13         7.5470   -4.7047    5.5272 C.2       1 <0>        -0.0488
     19 C14         9.0084   -4.5563    5.5477 C.ar      1 <0>        -0.0367
     20 C15         9.5929   -3.3204    5.2048 C.ar      1 <0>        -0.0901
     21 C16        10.9392   -3.1599    5.2166 C.ar      1 <0>        -0.0899
     22 C17        11.7770   -4.2341    5.5743 C.ar      1 <0>         0.1243
     23 C18        11.2006   -5.4827    5.9213 C.ar      1 <0>        -0.0987
     24 C19         9.8077   -5.6335    5.9106 C.ar      1 <0>        -0.0920
     25 C20        12.0475   -6.5508    6.2776 C.ar      1 <0>        -0.0569
     26 C21        13.3962   -6.3333    6.2726 C.ar      1 <0>        -0.1817
     27 C22        13.8964   -5.0820    5.9213 C.ar      1 <0>         0.1214
     28 N3         13.1050   -4.0897    5.5905 N.ar      1 <0>        -0.4729
     29 S1          7.2697   -2.4542    3.7938 S.3       1 <0>        -0.1254
     30 H3         -0.6573    3.7781    2.8734 H         1 <0>         0.1163
     31 H4          1.5885    4.7773    2.7282 H         1 <0>         0.1180
     32 H5          3.5204    3.3797    2.1135 H         1 <0>         0.1209
     33 H6          0.9596   -0.0146    1.7823 H         1 <0>         0.1236
     34 H7         -0.9726    1.3832    2.3955 H         1 <0>         0.1183
     35 H8          2.2163   -1.0024    1.0108 H         1 <0>         0.0884
     36 H9          3.9071   -1.0923    0.2796 H         1 <0>         0.0926
     37 H10         7.0812   -5.5347    6.0376 H         1 <0>         0.1472
     38 H11         8.9598   -2.4902    4.9286 H         1 <0>         0.1510
     39 H12        11.3702   -2.2060    4.9506 H         1 <0>         0.1370
     40 H13         9.3597   -6.5792    6.1776 H         1 <0>         0.1346
     41 H14        11.6417   -7.5146    6.5476 H         1 <0>         0.1372
     42 H15        14.0736   -7.1306    6.5409 H         1 <0>         0.1342
     43 H16        14.9648   -4.9242    5.9215 H         1 <0>         0.1555
@<TRIPOS>BOND
     1    1    6 ar
     2    1    2 ar
     3    1   30 1
     4    2    3 ar
     5    2   31 1
     6    3    4 ar
     7    3   32 1
     8    4    5 ar
     9    4    7 1
    10    5    6 ar
    11    5   33 1
    12    6   34 1
    13    7    8 1
    14    7   10 1
    15    7    9 1
    16    9   10 1
    17    9   35 1
    18    9   36 1
    19   10   11 1
    20   10   12 1
    21   12   13 1
    22   13   29 1
    23   13   14 2
    24   14   15 1
    25   15   16 2
    26   15   17 1
    27   17   18 2
    28   17   29 1
    29   18   19 1
    30   18   37 1
    31   19   24 ar
    32   19   20 ar
    33   20   21 ar
    34   20   38 1
    35   21   22 ar
    36   21   39 1
    37   22   28 ar
    38   22   23 ar
    39   23   24 ar
    40   23   25 ar
    41   24   40 1
    42   25   26 ar
    43   25   41 1
    44   26   27 ar
    45   26   42 1
    46   27   28 ar
    47   27   43 1
@<TRIPOS>MOLECULE
CHEMBL374677
   48    51     0     0     0
SMALL
USER_CHARGES

@<TRIPOS>ATOM
      1 C1          0.4585    0.4884    0.9561 C.ar      1 <0>        -0.1053
      2 C2          1.6076    1.2518    1.0011 C.ar      1 <0>        -0.0997
      3 C3          2.4549    1.2978   -0.1049 C.ar      1 <0>         0.0178
      4 C4          2.1363    0.5716   -1.2514 C.ar      1 <0>        -0.1041
      5 C5          0.9840   -0.1888   -1.2854 C.ar      1 <0>        -0.0324
      6 C6          0.1465   -0.2303   -0.1835 C.ar      1 <0>        -0.1157
      7 Cl1         0.5845   -1.0937   -2.7121 Cl        1 <0>        -0.0711
      8 C7          3.6902    2.1165   -0.0621 C.2       1 <0>        -0.2041
      9 C8          4.0508    3.1299   -0.9685 C.2       1 <0>         0.0722
     10 N1          5.2047    3.6215   -0.6039 N.2       1 <0>        -0.2873
     11 N2          5.6429    2.9556    0.5466 N.pl3     1 <0>        -0.4648
     12 H1          6.4701    3.1267    1.0233 H         1 <0>         0.4422
     13 C9          4.7029    2.0294    0.8832 C.2       1 <0>         0.1923
     14 C10         4.7529    1.1045    2.0356 C.2       1 <0>        -0.1452
     15 C11         5.0814    1.4409    3.3654 C.2       1 <0>        -0.0781
     16 C12         5.0056    0.2925    4.1007 C.2       1 <0>        -0.0512
     17 N3          4.6408   -0.7344    3.2595 N.pl3     1 <0>        -0.5279
     18 H2          4.5146   -1.6594    3.5227 H         1 <0>         0.4217
     19 C13         4.4814   -0.2472    2.0125 C.2       1 <0>         0.0823
     20 C14         5.2686    0.1735    5.5394 C.2       1 <0>         0.5922
     21 O1          5.5864    1.1561    6.1831 O.2       1 <0>        -0.5241
     22 N4          5.1581   -1.0240    6.1478 N.am      1 <0>        -0.7191
     23 C15         5.4207   -1.1428    7.5842 C.3       1 <0>         0.1944
     24 C16         6.9218   -1.3287    7.8146 C.3       1 <0>         0.0667
     25 O2          7.3400   -2.5728    7.2497 O.3       1 <0>        -0.5683
     26 C17         4.6770   -2.3326    8.1341 C.ar      1 <0>        -0.1052
     27 C18         4.6144   -3.5053    7.4048 C.ar      1 <0>        -0.0624
     28 C19         3.9330   -4.5972    7.9082 C.ar      1 <0>        -0.1539
     29 C20         3.3130   -4.5163    9.1436 C.ar      1 <0>         0.1043
     30 C21         3.3763   -3.3412    9.8731 C.ar      1 <0>        -0.1518
     31 C22         4.0627   -2.2523    9.3700 C.ar      1 <0>        -0.0773
     32 F1          2.6462   -5.5829    9.6365 F         1 <0>        -0.1374
     33 H3         -0.1960    0.4488    1.8142 H         1 <0>         0.1305
     34 H4          1.8497    1.8128    1.8916 H         1 <0>         0.1270
     35 H5          2.7889    0.6038   -2.1113 H         1 <0>         0.1339
     36 H6         -0.7536   -0.8264   -0.2139 H         1 <0>         0.1310
     37 H7          3.4713    3.4477   -1.8226 H         1 <0>         0.1869
     38 H8          5.3438    2.4220    3.7330 H         1 <0>         0.1531
     39 H9          4.1925   -0.8188    1.1429 H         1 <0>         0.1804
     40 H10         4.9048   -1.8072    5.6347 H         1 <0>         0.3968
     41 H11         5.0845   -0.2383    8.0910 H         1 <0>         0.1151
     42 H12         7.4661   -0.5126    7.3394 H         1 <0>         0.0588
     43 H13         7.1279   -1.3281    8.8850 H         1 <0>         0.0602
     44 H14         8.2829   -2.7572    7.3588 H         1 <0>         0.3828
     45 H15         5.0978   -3.5682    6.4411 H         1 <0>         0.1315
     46 H16         3.8839   -5.5132    7.3381 H         1 <0>         0.1373
     47 H17         2.8928   -3.2768   10.8366 H         1 <0>         0.1390
     48 H18         4.1161   -1.3370    9.9408 H         1 <0>         0.1361
@<TRIPOS>BOND
     1    1    6 ar
     2    1    2 ar
     3    1   33 1
     4    2    3 ar
     5    2   34 1
     6    3    4 ar
     7    3    8 1
     8    4    5 ar
     9    4   35 1
    10    5    6 ar
    11    5    7 1
    12    6   36 1
    13    8   13 2
    14    8    9 1
    15    9   10 2
    16    9   37 1
    17   10   11 1
    18   11   12 1
    19   11   13 1
    20   13   14 1
    21   14   19 2
    22   14   15 1
    23   15   16 2
    24   15   38 1
    25   16   17 1
    26   16   20 1
    27   17   18 1
    28   17   19 1
    29   19   39 1
    30   20   21 2
    31   20   22 am
    32   22   23 1
    33   22   40 1
    34   23   24 1
    35   23   26 1
    36   23   41 1
    37   24   25 1
    38   24   42 1
    39   24   43 1
    40   25   44 1
    41   26   31 ar
    42   26   27 ar
    43   27   28 ar
    44   27   45 1
    45   28   29 ar
    46   28   46 1
    47   29   30 ar
    48   29   32 1
    49   30   31 ar
    50   30   47 1
    51   31   48 1
@<TRIPOS>MOLECULE
CHEMBL374677__1
   48    51     0     0     0
SMALL
USER_CHARGES

@<TRIPOS>ATOM
      1 C1         -0.0167    1.3786    0.0096 C.ar      1 <0>        -0.1039
      2 C2          1.1676    2.0878    0.0021 C.ar      1 <0>        -0.1107
      3 C3          2.3840    1.4085   -0.0131 C.ar      1 <0>         0.0146
      4 C4          2.3983    0.0151   -0.0207 C.ar      1 <0>        -0.0964
      5 C5          1.2076   -0.6849   -0.0131 C.ar      1 <0>        -0.0326
      6 C6          0.0021   -0.0041    0.0020 C.ar      1 <0>        -0.1163
      7 Cl1         1.2227   -2.4208   -0.0230 Cl        1 <0>        -0.0706
      8 C7          3.6597    2.1660   -0.0217 C.2       1 <0>        -0.2031
      9 C8          3.9817    3.1931   -0.8578 C.2       1 <0>         0.0823
     10 N1          5.2257    3.6075   -0.5427 N.pl3     1 <0>        -0.4699
     11 N2          5.6983    2.8234    0.5164 N.2       1 <0>        -0.2802
     12 H1          5.7109    4.3266   -0.9767 H         1 <0>         0.4445
     13 C9          4.7639    1.9580    0.8421 C.2       1 <0>         0.1756
     14 C10         4.8515    0.9411    1.9196 C.2       1 <0>        -0.1180
     15 C11         6.0090    0.2429    2.3146 C.2       1 <0>        -0.0667
     16 C12         5.6459   -0.5903    3.3354 C.2       1 <0>        -0.0570
     17 N3          4.3004   -0.4148    3.5685 N.pl3     1 <0>        -0.5319
     18 H2          3.7794   -0.8811    4.2408 H         1 <0>         0.4195
     19 C13         3.8255    0.5150    2.7144 C.2       1 <0>         0.0721
     20 C14         6.5335   -1.5100    4.0557 C.2       1 <0>         0.5940
     21 O1          7.7114   -1.5775    3.7574 O.2       1 <0>        -0.5251
     22 N4          6.0445   -2.2801    5.0478 N.am      1 <0>        -0.7203
     23 C15         6.9308   -3.1985    5.7669 C.3       1 <0>         0.1943
     24 C16         7.0358   -4.5153    4.9950 C.3       1 <0>         0.0668
     25 O2          5.7601   -5.1589    4.9753 O.3       1 <0>        -0.5678
     26 C17         6.3708   -3.4647    7.1405 C.ar      1 <0>        -0.1038
     27 C18         5.0099   -3.6389    7.3096 C.ar      1 <0>        -0.0621
     28 C19         4.4952   -3.8835    8.5687 C.ar      1 <0>        -0.1540
     29 C20         5.3432   -3.9541    9.6609 C.ar      1 <0>         0.1031
     30 C21         6.7061   -3.7795    9.4903 C.ar      1 <0>        -0.1522
     31 C22         7.2191   -3.5402    8.2295 C.ar      1 <0>        -0.0777
     32 F1          4.8412   -4.1927   10.8922 F         1 <0>        -0.1381
     33 H3         -0.9598    1.9047    0.0260 H         1 <0>         0.1326
     34 H4          1.1513    3.1677    0.0077 H         1 <0>         0.1287
     35 H5          3.3383   -0.5164   -0.0328 H         1 <0>         0.1337
     36 H6         -0.9269   -0.5549    0.0079 H         1 <0>         0.1316
     37 H7          3.3526    3.6020   -1.6347 H         1 <0>         0.1814
     38 H8          6.9969    0.3459    1.8906 H         1 <0>         0.1531
     39 H9          2.8041    0.8626    2.6654 H         1 <0>         0.1751
     40 H10         5.1056   -2.2264    5.2856 H         1 <0>         0.3965
     41 H11         7.9206   -2.7511    5.8585 H         1 <0>         0.1146
     42 H12         7.3564   -4.3128    3.9731 H         1 <0>         0.0593
     43 H13         7.7630   -5.1650    5.4820 H         1 <0>         0.0592
     44 H14         5.7521   -6.0018    4.5014 H         1 <0>         0.3821
     45 H15         4.3485   -3.5834    6.4576 H         1 <0>         0.1321
     46 H16         3.4319   -4.0192    8.7006 H         1 <0>         0.1370
     47 H17         7.3685   -3.8340   10.3415 H         1 <0>         0.1385
     48 H18         8.2826   -3.4084    8.0955 H         1 <0>         0.1360
@<TRIPOS>BOND
     1    1    6 ar
     2    1    2 ar
     3    1   33 1
     4    2    3 ar
     5    2   34 1
     6    3    4 ar
     7    3    8 1
     8    4    5 ar
     9    4   35 1
    10    5    6 ar
    11    5    7 1
    12    6   36 1
    13    8   13 1
    14    8    9 2
    15    9   37 1
    16    9   10 1
    17   10   11 1
    18   10   12 1
    19   11   13 2
    20   13   14 1
    21   14   19 2
    22   14   15 1
    23   15   16 2
    24   15   38 1
    25   16   17 1
    26   16   20 1
    27   17   18 1
    28   17   19 1
    29   19   39 1
    30   20   21 2
    31   20   22 am
    32   22   23 1
    33   22   40 1
    34   23   24 1
    35   23   26 1
    36   23   41 1
    37   24   25 1
    38   24   42 1
    39   24   43 1
    40   25   44 1
    41   26   31 ar
    42   26   27 ar
    43   27   28 ar
    44   27   45 1
    45   28   29 ar
    46   28   46 1
    47   29   30 ar
    48   29   32 1
    49   30   31 ar
    50   30   47 1
    51   31   48 1
@<TRIPOS>MOLECULE
CHEMBL374677__2
   48    51     0     0     0
SMALL
USER_CHARGES

@<TRIPOS>ATOM
      1 C1          0.4585    0.4884    0.9561 C.ar      1 <0>        -0.1053
      2 C2          1.6076    1.2518    1.0011 C.ar      1 <0>        -0.0997
      3 C3          2.4549    1.2978   -0.1049 C.ar      1 <0>         0.0179
      4 C4          2.1363    0.5716   -1.2514 C.ar      1 <0>        -0.1041
      5 C5          0.9840   -0.1888   -1.2854 C.ar      1 <0>        -0.0324
      6 C6          0.1465   -0.2303   -0.1835 C.ar      1 <0>        -0.1157
      7 Cl1         0.5845   -1.0937   -2.7121 Cl        1 <0>        -0.0710
      8 C7          3.6902    2.1165   -0.0621 C.2       1 <0>        -0.2042
      9 C8          4.0508    3.1299   -0.9685 C.2       1 <0>         0.0722
     10 N1          5.2047    3.6215   -0.6039 N.2       1 <0>        -0.2872
     11 N2          5.6429    2.9556    0.5466 N.pl3     1 <0>        -0.4647
     12 H1          6.4701    3.1267    1.0233 H         1 <0>         0.4423
     13 C9          4.7029    2.0294    0.8832 C.2       1 <0>         0.1923
     14 C10         4.7529    1.1045    2.0356 C.2       1 <0>        -0.1452
     15 C11         5.0814    1.4409    3.3654 C.2       1 <0>        -0.0781
     16 C12         5.0056    0.2925    4.1007 C.2       1 <0>        -0.0512
     17 N3          4.6408   -0.7344    3.2595 N.pl3     1 <0>        -0.5280
     18 H2          4.5146   -1.6594    3.5227 H         1 <0>         0.4217
     19 C13         4.4814   -0.2472    2.0125 C.2       1 <0>         0.0823
     20 C14         5.2686    0.1735    5.5394 C.2       1 <0>         0.5922
     21 O1          5.5864    1.1561    6.1831 O.2       1 <0>        -0.5241
     22 N4          5.1581   -1.0240    6.1478 N.am      1 <0>        -0.7192
     23 C15         5.4207   -1.1428    7.5842 C.3       1 <0>         0.1944
     24 C16         4.1522   -0.7935    8.3651 C.3       1 <0>         0.0668
     25 O2          3.1386   -1.7610    8.0848 O.3       1 <0>        -0.5681
     26 C17         5.8343   -2.5562    7.9041 C.ar      1 <0>        -0.1049
     27 C18         5.2056   -3.6177    7.2803 C.ar      1 <0>        -0.0627
     28 C19         5.5843   -4.9143    7.5724 C.ar      1 <0>        -0.1537
     29 C20         6.5938   -5.1499    8.4903 C.ar      1 <0>         0.1041
     30 C21         7.2227   -4.0860    9.1144 C.ar      1 <0>        -0.1517
     31 C22         6.8459   -2.7901    8.8168 C.ar      1 <0>        -0.0776
     32 F1          6.9646   -6.4170    8.7770 F         1 <0>        -0.1374
     33 H3         -0.1960    0.4488    1.8142 H         1 <0>         0.1305
     34 H4          1.8497    1.8128    1.8916 H         1 <0>         0.1269
     35 H5          2.7889    0.6038   -2.1113 H         1 <0>         0.1338
     36 H6         -0.7536   -0.8264   -0.2139 H         1 <0>         0.1310
     37 H7          3.4713    3.4477   -1.8226 H         1 <0>         0.1869
     38 H8          5.3438    2.4220    3.7330 H         1 <0>         0.1531
     39 H9          4.1925   -0.8188    1.1429 H         1 <0>         0.1804
     40 H10         4.9048   -1.8072    5.6347 H         1 <0>         0.3967
     41 H11         6.2206   -0.4578    7.8652 H         1 <0>         0.1150
     42 H12         4.3709   -0.7953    9.4330 H         1 <0>         0.0601
     43 H13         3.8030    0.1952    8.0675 H         1 <0>         0.0590
     44 H14         2.3044   -1.6019    8.5471 H         1 <0>         0.3828
     45 H15         4.4179   -3.4337    6.5646 H         1 <0>         0.1314
     46 H16         5.0928   -5.7434    7.0853 H         1 <0>         0.1374
     47 H17         8.0101   -4.2686    9.8308 H         1 <0>         0.1390
     48 H18         7.3394   -1.9599    9.3001 H         1 <0>         0.1361
@<TRIPOS>BOND
     1    1    6 ar
     2    1    2 ar
     3    1   33 1
     4    2    3 ar
     5    2   34 1
     6    3    4 ar
     7    3    8 1
     8    4    5 ar
     9    4   35 1
    10    5    6 ar
    11    5    7 1
    12    6   36 1
    13    8   13 2
    14    8    9 1
    15    9   10 2
    16    9   37 1
    17   10   11 1
    18   11   12 1
    19   11   13 1
    20   13   14 1
    21   14   19 2
    22   14   15 1
    23   15   16 2
    24   15   38 1
    25   16   17 1
    26   16   20 1
    27   17   18 1
    28   17   19 1
    29   19   39 1
    30   20   21 2
    31   20   22 am
    32   22   23 1
    33   22   40 1
    34   23   24 1
    35   23   26 1
    36   23   41 1
    37   24   25 1
    38   24   42 1
    39   24   43 1
    40   25   44 1
    41   26   31 ar
    42   26   27 ar
    43   27   28 ar
    44   27   45 1
    45   28   29 ar
    46   28   46 1
    47   29   30 ar
    48   29   32 1
    49   30   31 ar
    50   30   47 1
    51   31   48 1
@<TRIPOS>MOLECULE
CHEMBL374677__3
   48    51     0     0     0
SMALL
USER_CHARGES

@<TRIPOS>ATOM
      1 C1         -0.0167    1.3786    0.0096 C.ar      1 <0>        -0.1039
      2 C2          1.1676    2.0878    0.0021 C.ar      1 <0>        -0.1107
      3 C3          2.3840    1.4085   -0.0131 C.ar      1 <0>         0.0145
      4 C4          2.3983    0.0151   -0.0207 C.ar      1 <0>        -0.0965
      5 C5          1.2076   -0.6849   -0.0131 C.ar      1 <0>        -0.0327
      6 C6          0.0021   -0.0041    0.0020 C.ar      1 <0>        -0.1163
      7 Cl1         1.2227   -2.4208   -0.0230 Cl        1 <0>        -0.0704
      8 C7          3.6597    2.1660   -0.0217 C.2       1 <0>        -0.2030
      9 C8          3.9817    3.1931   -0.8578 C.2       1 <0>         0.0824
     10 N1          5.2257    3.6075   -0.5427 N.pl3     1 <0>        -0.4699
     11 N2          5.6983    2.8234    0.5164 N.2       1 <0>        -0.2803
     12 H1          5.7109    4.3266   -0.9767 H         1 <0>         0.4445
     13 C9          4.7639    1.9580    0.8421 C.2       1 <0>         0.1757
     14 C10         4.8515    0.9411    1.9196 C.2       1 <0>        -0.1180
     15 C11         6.0090    0.2429    2.3146 C.2       1 <0>        -0.0666
     16 C12         5.6459   -0.5903    3.3354 C.2       1 <0>        -0.0570
     17 N3          4.3004   -0.4148    3.5685 N.pl3     1 <0>        -0.5319
     18 H2          3.7794   -0.8811    4.2408 H         1 <0>         0.4195
     19 C13         3.8255    0.5150    2.7144 C.2       1 <0>         0.0721
     20 C14         6.5335   -1.5100    4.0557 C.2       1 <0>         0.5940
     21 O1          7.7114   -1.5775    3.7574 O.2       1 <0>        -0.5251
     22 N4          6.0445   -2.2801    5.0478 N.am      1 <0>        -0.7204
     23 C15         6.9308   -3.1985    5.7669 C.3       1 <0>         0.1943
     24 C16         7.6362   -2.4462    6.8972 C.3       1 <0>         0.0668
     25 O2          6.6708   -2.0202    7.8608 O.3       1 <0>        -0.5681
     26 C17         6.1199   -4.3293    6.3456 C.ar      1 <0>        -0.1035
     27 C18         4.8784   -4.0764    6.8986 C.ar      1 <0>        -0.0623
     28 C19         4.1337   -5.1127    7.4292 C.ar      1 <0>        -0.1537
     29 C20         4.6315   -6.4045    7.4068 C.ar      1 <0>         0.1031
     30 C21         5.8751   -6.6565    6.8526 C.ar      1 <0>        -0.1520
     31 C22         6.6157   -5.6195    6.3179 C.ar      1 <0>        -0.0778
     32 F1          3.9046   -7.4182    7.9255 F         1 <0>        -0.1380
     33 H3         -0.9598    1.9047    0.0260 H         1 <0>         0.1327
     34 H4          1.1513    3.1677    0.0077 H         1 <0>         0.1287
     35 H5          3.3383   -0.5164   -0.0328 H         1 <0>         0.1338
     36 H6         -0.9269   -0.5549    0.0079 H         1 <0>         0.1316
     37 H7          3.3526    3.6020   -1.6347 H         1 <0>         0.1814
     38 H8          6.9969    0.3459    1.8906 H         1 <0>         0.1531
     39 H9          2.8041    0.8626    2.6654 H         1 <0>         0.1751
     40 H10         5.1056   -2.2264    5.2856 H         1 <0>         0.3965
     41 H11         7.6743   -3.5999    5.0783 H         1 <0>         0.1147
     42 H12         8.3607   -3.1052    7.3756 H         1 <0>         0.0593
     43 H13         8.1505   -1.5762    6.4890 H         1 <0>         0.0593
     44 H14         7.0481   -1.5353    8.6076 H         1 <0>         0.3821
     45 H15         4.4905   -3.0687    6.9163 H         1 <0>         0.1316
     46 H16         3.1640   -4.9149    7.8615 H         1 <0>         0.1369
     47 H17         6.2645   -7.6637    6.8349 H         1 <0>         0.1385
     48 H18         7.5838   -5.8165    5.8816 H         1 <0>         0.1360
@<TRIPOS>BOND
     1    1    6 ar
     2    1    2 ar
     3    1   33 1
     4    2    3 ar
     5    2   34 1
     6    3    4 ar
     7    3    8 1
     8    4    5 ar
     9    4   35 1
    10    5    6 ar
    11    5    7 1
    12    6   36 1
    13    8   13 1
    14    8    9 2
    15    9   37 1
    16    9   10 1
    17   10   11 1
    18   10   12 1
    19   11   13 2
    20   13   14 1
    21   14   19 2
    22   14   15 1
    23   15   16 2
    24   15   38 1
    25   16   17 1
    26   16   20 1
    27   17   18 1
    28   17   19 1
    29   19   39 1
    30   20   21 2
    31   20   22 am
    32   22   23 1
    33   22   40 1
    34   23   24 1
    35   23   26 1
    36   23   41 1
    37   24   25 1
    38   24   42 1
    39   24   43 1
    40   25   44 1
    41   26   31 ar
    42   26   27 ar
    43   27   28 ar
    44   27   45 1
    45   28   29 ar
    46   28   46 1
    47   29   30 ar
    48   29   32 1
    49   30   31 ar
    50   30   47 1
    51   31   48 1
@<TRIPOS>MOLECULE
CHEMBL318804
   68    72     0     0     0
SMALL
USER_CHARGES

@<TRIPOS>ATOM
      1 C1          8.1846   -2.2796    3.1039 C.3       1 <0>         0.0697
      2 N1          6.9617   -1.7129    3.6780 N.pl3     1 <0>        -0.4481
      3 C2          6.7387   -0.3902    3.9864 C.2       1 <0>        -0.0466
      4 C3          5.4942   -0.3089    4.4879 C.2       1 <0>        -0.0190
      5 N2          4.9588   -1.5409    4.4921 N.2       1 <0>        -0.4765
      6 C4          5.8283   -2.3936    4.0023 C.2       1 <0>         0.1750
      7 S1          5.5735   -4.1257    3.8030 S.3       1 <0>         0.0915
      8 C5          3.9958   -4.4113    4.5335 C.ar      1 <0>        -0.1689
      9 C6          2.8859   -4.6288    3.7270 C.ar      1 <0>         0.0009
     10 C7          1.6497   -4.8520    4.2992 C.ar      1 <0>        -0.1838
     11 C8          1.5149   -4.8594    5.6820 C.ar      1 <0>         0.2473
     12 C9          2.6241   -4.6421    6.4893 C.ar      1 <0>        -0.1833
     13 C10         3.8625   -4.4247    5.9173 C.ar      1 <0>         0.0724
     14 Cl1         5.2505   -4.1602    6.9258 Cl        1 <0>        -0.0416
     15 N3          0.2613   -5.0854    6.2615 N.pl3     1 <0>        -0.6974
     16 C11         0.0981   -4.9548    7.6257 C.ar      1 <0>         0.2553
     17 C12         0.3590   -6.0360    8.4993 C.ar      1 <0>        -0.0971
     18 C13         0.7927   -7.2756    8.0060 C.ar      1 <0>        -0.1607
     19 C14         1.0377   -8.3026    8.8711 C.ar      1 <0>         0.1299
     20 C15         0.8599   -8.1310   10.2513 C.ar      1 <0>         0.1595
     21 C16         0.4350   -6.9253   10.7606 C.ar      1 <0>        -0.1769
     22 C17         0.1769   -5.8540    9.8913 C.ar      1 <0>         0.1673
     23 N4         -0.2369   -4.6713   10.3695 N.ar      1 <0>        -0.4599
     24 C18        -0.4856   -3.6542    9.5845 C.ar      1 <0>         0.1789
     25 C19        -0.3266   -3.7432    8.1922 C.ar      1 <0>        -0.0832
     26 C20        -0.6000   -2.6113    7.3589 C.1       1 <0>         0.2510
     27 N5         -0.8169   -1.7133    6.6977 N.1       1 <0>        -0.3892
     28 O1          1.1094   -9.1663   11.0948 O.3       1 <0>        -0.2920
     29 C21         0.9097   -8.9292   12.4897 C.3       1 <0>         0.0546
     30 C22         1.2385  -10.2003   13.2753 C.3       1 <0>        -0.1159
     31 C23         1.0247   -9.9464   14.7689 C.3       1 <0>         0.0586
     32 N6          1.3404  -11.1669   15.5231 N.3       1 <0>        -0.5363
     33 C24         0.3818  -12.2385   15.2165 C.3       1 <0>         0.0125
     34 C25         0.7818  -13.5063   15.9758 C.3       1 <0>         0.0624
     35 O2          0.8427  -13.2184   17.3754 O.3       1 <0>        -0.3854
     36 C26         1.7672  -12.1798   17.7098 C.3       1 <0>         0.0627
     37 C27         1.3772  -10.8985   16.9681 C.3       1 <0>         0.0174
     38 O3          1.4575   -9.5031    8.3901 O.3       1 <0>        -0.2971
     39 C28         1.6190   -9.6143    6.9746 C.3       1 <0>         0.0221
     40 H1          8.1195   -2.2572    2.0161 H         1 <0>         0.0806
     41 H2          9.0441   -1.6932    3.4286 H         1 <0>         0.0904
     42 H3          8.3000   -3.3101    3.4398 H         1 <0>         0.0891
     43 H4          7.4318    0.4270    3.8514 H         1 <0>         0.1780
     44 H5          5.0080    0.5929    4.8296 H         1 <0>         0.1708
     45 H6          2.9901   -4.6228    2.6521 H         1 <0>         0.1453
     46 H7          0.7869   -5.0207    3.6718 H         1 <0>         0.1387
     47 H8          2.5190   -4.6471    7.5642 H         1 <0>         0.1358
     48 H9         -0.4929   -5.3337    5.7043 H         1 <0>         0.4222
     49 H10         0.9320   -7.4171    6.9444 H         1 <0>         0.1483
     50 H11         0.3005   -6.8038   11.8253 H         1 <0>         0.1565
     51 H12        -0.8168   -2.7224   10.0185 H         1 <0>         0.1746
     52 H13         1.5625   -8.1202   12.8179 H         1 <0>         0.0712
     53 H14        -0.1295   -8.6517   12.6660 H         1 <0>         0.0686
     54 H15         0.5858  -11.0092   12.9472 H         1 <0>         0.0766
     55 H16         2.2778  -10.4778   13.0990 H         1 <0>         0.0866
     56 H17         1.6775   -9.1375   15.0970 H         1 <0>         0.0817
     57 H18        -0.0145   -9.6690   14.9451 H         1 <0>         0.0405
     58 H19        -0.6181  -11.9310   15.5227 H         1 <0>         0.0446
     59 H20         0.3896  -12.4382   14.1450 H         1 <0>         0.0904
     60 H21         0.0420  -14.2865   15.7966 H         1 <0>         0.0992
     61 H22         1.7590  -13.8441   15.6308 H         1 <0>         0.0611
     62 H23         1.7401  -12.0007   18.7847 H         1 <0>         0.0996
     63 H24         2.7730  -12.4791   17.4153 H         1 <0>         0.0611
     64 H25         2.1116  -10.1202   17.1751 H         1 <0>         0.0883
     65 H26         0.3932  -10.5696   17.3023 H         1 <0>         0.0448
     66 H27         0.6655   -9.4193    6.4837 H         1 <0>         0.0583
     67 H28         2.3576   -8.8882    6.6350 H         1 <0>         0.0598
     68 H29         1.9570  -10.6201    6.7253 H         1 <0>         0.1073
@<TRIPOS>BOND
     1    1    2 1
     2    1   40 1
     3    1   41 1
     4    1   42 1
     5    2    6 1
     6    2    3 1
     7    3    4 2
     8    3   43 1
     9    4    5 1
    10    4   44 1
    11    5    6 2
    12    6    7 1
    13    7    8 1
    14    8   13 ar
    15    8    9 ar
    16    9   10 ar
    17    9   45 1
    18   10   11 ar
    19   10   46 1
    20   11   12 ar
    21   11   15 1
    22   12   13 ar
    23   12   47 1
    24   13   14 1
    25   15   16 1
    26   15   48 1
    27   16   25 ar
    28   16   17 ar
    29   17   22 ar
    30   17   18 ar
    31   18   19 ar
    32   18   49 1
    33   19   20 ar
    34   19   38 1
    35   20   21 ar
    36   20   28 1
    37   21   22 ar
    38   21   50 1
    39   22   23 ar
    40   23   24 ar
    41   24   25 ar
    42   24   51 1
    43   25   26 1
    44   26   27 3
    45   28   29 1
    46   29   30 1
    47   29   52 1
    48   29   53 1
    49   30   31 1
    50   30   54 1
    51   30   55 1
    52   31   32 1
    53   31   56 1
    54   31   57 1
    55   32   37 1
    56   32   33 1
    57   33   34 1
    58   33   58 1
    59   33   59 1
    60   34   35 1
    61   34   60 1
    62   34   61 1
    63   35   36 1
    64   36   37 1
    65   36   62 1
    66   36   63 1
    67   37   64 1
    68   37   65 1
    69   38   39 1
    70   39   66 1
    71   39   67 1
    72   39   68 1
@<TRIPOS>MOLECULE
CHEMBL318804__1
   69    73     0     0     0
SMALL
USER_CHARGES

@<TRIPOS>ATOM
      1 C1          8.1846   -2.2796    3.1039 C.3       1 <0>         0.0690
      2 N1          6.9617   -1.7129    3.6780 N.pl3     1 <0>        -0.4472
      3 C2          6.7387   -0.3902    3.9864 C.2       1 <0>        -0.0436
      4 C3          5.4942   -0.3089    4.4879 C.2       1 <0>        -0.0194
      5 N2          4.9588   -1.5409    4.4921 N.2       1 <0>        -0.4772
      6 C4          5.8283   -2.3936    4.0023 C.2       1 <0>         0.1728
      7 S1          5.5735   -4.1257    3.8030 S.3       1 <0>         0.0927
      8 C5          3.9958   -4.4113    4.5335 C.ar      1 <0>        -0.1655
      9 C6          2.8859   -4.6288    3.7270 C.ar      1 <0>         0.0018
     10 C7          1.6497   -4.8520    4.2992 C.ar      1 <0>        -0.1811
     11 C8          1.5149   -4.8594    5.6820 C.ar      1 <0>         0.2432
     12 C9          2.6241   -4.6421    6.4893 C.ar      1 <0>        -0.1844
     13 C10         3.8625   -4.4247    5.9173 C.ar      1 <0>         0.0713
     14 Cl1         5.2505   -4.1602    6.9258 Cl        1 <0>        -0.0416
     15 N3          0.2613   -5.0854    6.2615 N.pl3     1 <0>        -0.6999
     16 C11         0.0981   -4.9548    7.6257 C.ar      1 <0>         0.2583
     17 C12         0.3590   -6.0360    8.4993 C.ar      1 <0>        -0.0939
     18 C13         0.7927   -7.2756    8.0060 C.ar      1 <0>        -0.1519
     19 C14         1.0377   -8.3026    8.8711 C.ar      1 <0>         0.1264
     20 C15         0.8599   -8.1310   10.2513 C.ar      1 <0>         0.1492
     21 C16         0.4350   -6.9253   10.7606 C.ar      1 <0>        -0.1689
     22 C17         0.1769   -5.8540    9.8913 C.ar      1 <0>         0.1618
     23 N4         -0.2369   -4.6713   10.3695 N.ar      1 <0>        -0.4627
     24 C18        -0.4856   -3.6542    9.5845 C.ar      1 <0>         0.1841
     25 C19        -0.3266   -3.7432    8.1922 C.ar      1 <0>        -0.0732
     26 C20        -0.6000   -2.6113    7.3589 C.1       1 <0>         0.2431
     27 N5         -0.8169   -1.7133    6.6977 N.1       1 <0>        -0.3765
     28 O1          1.1094   -9.1663   11.0948 O.3       1 <0>        -0.2937
     29 C21         0.9097   -8.9292   12.4897 C.3       1 <0>         0.0563
     30 C22         1.2385  -10.2003   13.2753 C.3       1 <0>        -0.1505
     31 C23         1.0247   -9.9464   14.7689 C.3       1 <0>        -0.0061
     32 N6          1.3404  -11.1669   15.5231 N.4       1 <0>        -0.3843
     33 C24         0.3829  -12.2235   15.1684 C.3       1 <0>        -0.0501
     34 C25         0.7140  -13.4940   15.9554 C.3       1 <0>         0.0361
     35 O2          0.6811  -13.2035   17.3555 O.3       1 <0>        -0.3563
     36 C26         1.5807  -12.1627   17.7469 C.3       1 <0>         0.0355
     37 C27         1.2511  -10.8897   16.9633 C.3       1 <0>        -0.0433
     38 O3          1.4575   -9.5031    8.3901 O.3       1 <0>        -0.3014
     39 C28         1.6190   -9.6143    6.9746 C.3       1 <0>         0.0209
     40 H1          8.1195   -2.2572    2.0161 H         1 <0>         0.0818
     41 H2          9.0441   -1.6932    3.4286 H         1 <0>         0.0914
     42 H3          8.3000   -3.3101    3.4398 H         1 <0>         0.0887
     43 H4          7.4318    0.4270    3.8514 H         1 <0>         0.1791
     44 H5          5.0080    0.5929    4.8296 H         1 <0>         0.1714
     45 H6          2.9901   -4.6228    2.6521 H         1 <0>         0.1471
     46 H7          0.7869   -5.0207    3.6718 H         1 <0>         0.1399
     47 H8          2.5190   -4.6471    7.5642 H         1 <0>         0.1336
     48 H9         -0.4929   -5.3337    5.7043 H         1 <0>         0.4235
     49 H10         0.9320   -7.4171    6.9444 H         1 <0>         0.1513
     50 H11         0.3005   -6.8038   11.8253 H         1 <0>         0.1539
     51 H12        -0.8168   -2.7224   10.0185 H         1 <0>         0.1777
     52 H13         1.5625   -8.1202   12.8179 H         1 <0>         0.0792
     53 H14        -0.1295   -8.6517   12.6660 H         1 <0>         0.0788
     54 H15         0.5858  -11.0092   12.9472 H         1 <0>         0.1005
     55 H16         2.2778  -10.4778   13.0990 H         1 <0>         0.1015
     56 H17         1.6775   -9.1375   15.0970 H         1 <0>         0.1385
     57 H18        -0.0145   -9.6690   14.9451 H         1 <0>         0.1362
     58 H19        -0.6273  -11.8963   15.4145 H         1 <0>         0.1408
     59 H20         0.4484  -12.4300   14.1002 H         1 <0>         0.1447
     60 H21        -0.0207  -14.2659   15.7264 H         1 <0>         0.1426
     61 H22         1.7088  -13.8441   15.6796 H         1 <0>         0.0819
     62 H23         1.4731  -11.9710   18.8145 H         1 <0>         0.1429
     63 H24         2.6050  -12.4672   17.5325 H         1 <0>         0.0819
     64 H25         1.9612  -10.1060   17.2275 H         1 <0>         0.1442
     65 H26         0.2406  -10.5630   17.2088 H         1 <0>         0.1404
     66 H27         2.3576   -8.8882    6.6350 H         1 <0>         0.0621
     67 H28         1.9570  -10.6201    6.7253 H         1 <0>         0.1091
     68 H29         0.6655   -9.4193    6.4837 H         1 <0>         0.0607
     69 H30         2.2756  -11.4702   15.2962 H         1 <0>         0.4247
@<TRIPOS>BOND
     1    1    2 1
     2    1   40 1
     3    1   41 1
     4    1   42 1
     5    2    6 1
     6    2    3 1
     7    3    4 2
     8    3   43 1
     9    4    5 1
    10    4   44 1
    11    5    6 2
    12    6    7 1
    13    7    8 1
    14    8   13 ar
    15    8    9 ar
    16    9   10 ar
    17    9   45 1
    18   10   11 ar
    19   10   46 1
    20   11   12 ar
    21   11   15 1
    22   12   13 ar
    23   12   47 1
    24   13   14 1
    25   15   16 1
    26   15   48 1
    27   16   25 ar
    28   16   17 ar
    29   17   22 ar
    30   17   18 ar
    31   18   19 ar
    32   18   49 1
    33   19   20 ar
    34   19   38 1
    35   20   21 ar
    36   20   28 1
    37   21   22 ar
    38   21   50 1
    39   22   23 ar
    40   23   24 ar
    41   24   25 ar
    42   24   51 1
    43   25   26 1
    44   26   27 3
    45   28   29 1
    46   29   30 1
    47   29   52 1
    48   29   53 1
    49   30   31 1
    50   30   54 1
    51   30   55 1
    52   31   32 1
    53   31   56 1
    54   31   57 1
    55   32   37 1
    56   32   33 1
    57   32   69 1
    58   33   34 1
    59   33   58 1
    60   33   59 1
    61   34   35 1
    62   34   60 1
    63   34   61 1
    64   35   36 1
    65   36   37 1
    66   36   62 1
    67   36   63 1
    68   37   64 1
    69   37   65 1
    70   38   39 1
    71   39   66 1
    72   39   67 1
    73   39   68 1
@<TRIPOS>MOLECULE
CHEMBL247619
   55    58     0     0     0
SMALL
USER_CHARGES

@<TRIPOS>ATOM
      1 C1          2.0387   -1.2776   -0.6519 C.3       1 <0>         0.1053
      2 N1          0.6769   -0.8155   -0.3722 N.am      1 <0>        -0.7468
      3 C2         -0.3433   -1.6960   -0.3553 C.2       1 <0>         0.6904
      4 O1         -0.1335   -2.8738   -0.5722 O.2       1 <0>        -0.5221
      5 N2         -1.5961   -1.2709   -0.0980 N.am      1 <0>        -0.6700
      6 C3         -2.6655   -2.1609   -0.1839 C.ar      1 <0>         0.3926
      7 C4         -3.9653   -1.6933   -0.0249 C.ar      1 <0>        -0.2108
      8 C5         -5.0175   -2.5873   -0.1126 C.ar      1 <0>        -0.0200
      9 C6         -4.7324   -3.9239   -0.3574 C.ar      1 <0>        -0.2062
     10 C7         -3.4176   -4.3186   -0.5049 C.ar      1 <0>         0.1631
     11 N3         -2.4348   -3.4422   -0.4215 N.ar      1 <0>        -0.4728
     12 C8         -5.8464   -4.9335   -0.4604 C.3       1 <0>         0.1600
     13 N4         -6.2911   -5.0296   -1.8530 N.pl3     1 <0>        -0.6993
     14 C9         -7.3840   -5.8080   -2.1763 C.2       1 <0>         0.4464
     15 C10        -7.8630   -6.0706   -3.4578 C.2       1 <0>        -0.3786
     16 C11        -8.9935   -6.9089   -3.3122 C.2       1 <0>         0.1139
     17 N5         -9.1752   -7.1296   -2.0411 N.2       1 <0>        -0.2950
     18 N6         -8.1856   -6.4622   -1.3114 N.pl3     1 <0>        -0.3952
     19 C12        -8.0453   -6.4705    0.1468 C.3       1 <0>         0.0848
     20 C13        -7.3020   -5.5722   -4.7190 C.2       1 <0>         0.6082
     21 O2         -6.3202   -4.8533   -4.7062 O.2       1 <0>        -0.5421
     22 N7         -7.8742   -5.9106   -5.8914 N.am      1 <0>        -0.6675
     23 C14        -7.2963   -5.4964   -7.0981 C.ar      1 <0>         0.1806
     24 C15        -8.0998   -5.2386   -8.2008 C.ar      1 <0>        -0.1292
     25 C16        -7.5301   -4.8314   -9.3914 C.ar      1 <0>        -0.0649
     26 C17        -6.1550   -4.6784   -9.4896 C.ar      1 <0>         0.0246
     27 C18        -5.3482   -4.9333   -8.3869 C.ar      1 <0>         0.0725
     28 C19        -5.9208   -5.3379   -7.1907 C.ar      1 <0>        -0.0998
     29 O3         -3.9976   -4.7812   -8.4619 O.3       1 <0>        -0.2935
     30 C20        -3.4273   -4.7304   -9.7741 C.3       1 <0>         0.4127
     31 C21        -4.2720   -3.7756  -10.6285 C.3       1 <0>         0.4128
     32 O4         -5.6111   -4.2801  -10.6732 O.3       1 <0>        -0.2953
     33 F1         -4.2674   -2.4997  -10.0548 F         1 <0>        -0.1504
     34 F2         -3.7479   -3.7130  -11.9242 F         1 <0>        -0.1232
     35 F3         -2.1125   -4.2583   -9.6990 F         1 <0>        -0.1226
     36 F4         -3.4387   -6.0083  -10.3433 F         1 <0>        -0.1499
     37 H1          2.7232   -0.4298   -0.6229 H         1 <0>         0.0789
     38 H2          2.3353   -2.0100    0.0990 H         1 <0>         0.0611
     39 H3          2.0708   -1.7368   -1.6399 H         1 <0>         0.0613
     40 H4          0.5096    0.1241   -0.1992 H         1 <0>         0.3980
     41 H5         -1.7536   -0.3457    0.1470 H         1 <0>         0.4149
     42 H6         -4.1510   -0.6464    0.1648 H         1 <0>         0.1400
     43 H7         -6.0375   -2.2531    0.0070 H         1 <0>         0.1402
     44 H8         -3.1910   -5.3573   -0.6950 H         1 <0>         0.1602
     45 H9         -5.4870   -5.9066   -0.1258 H         1 <0>         0.0784
     46 H10        -6.6808   -4.6191    0.1665 H         1 <0>         0.0801
     47 H11        -5.8174   -4.5462   -2.5478 H         1 <0>         0.4328
     48 H12        -9.6009   -7.2984   -4.1158 H         1 <0>         0.1895
     49 H13        -8.5199   -5.5816    0.5625 H         1 <0>         0.0764
     50 H14        -8.5241   -7.3615    0.5529 H         1 <0>         0.0978
     51 H15        -6.9876   -6.4744    0.4101 H         1 <0>         0.0931
     52 H16        -8.6863   -6.4411   -5.8995 H         1 <0>         0.4162
     53 H17        -9.1708   -5.3569   -8.1276 H         1 <0>         0.1502
     54 H18        -8.1568   -4.6320  -10.2480 H         1 <0>         0.1540
     55 H19        -5.2957   -5.5339   -6.3321 H         1 <0>         0.1642
@<TRIPOS>BOND
     1    1    2 1
     2    1   37 1
     3    1   38 1
     4    1   39 1
     5    2    3 am
     6    2   40 1
     7    3    4 2
     8    3    5 am
     9    5    6 1
    10    5   41 1
    11    6   11 ar
    12    6    7 ar
    13    7    8 ar
    14    7   42 1
    15    8    9 ar
    16    8   43 1
    17    9   10 ar
    18    9   12 1
    19   10   11 ar
    20   10   44 1
    21   12   13 1
    22   12   45 1
    23   12   46 1
    24   13   14 1
    25   13   47 1
    26   14   18 1
    27   14   15 2
    28   15   16 1
    29   15   20 1
    30   16   17 2
    31   16   48 1
    32   17   18 1
    33   18   19 1
    34   19   49 1
    35   19   50 1
    36   19   51 1
    37   20   21 2
    38   20   22 am
    39   22   23 1
    40   22   52 1
    41   23   28 ar
    42   23   24 ar
    43   24   25 ar
    44   24   53 1
    45   25   26 ar
    46   25   54 1
    47   26   32 1
    48   26   27 ar
    49   27   28 ar
    50   27   29 1
    51   28   55 1
    52   29   30 1
    53   30   31 1
    54   30   35 1
    55   30   36 1
    56   31   32 1
    57   31   33 1
    58   31   34 1
@<TRIPOS>MOLECULE
CHEMBL247619__1
   56    59     0     0     0
SMALL
USER_CHARGES

@<TRIPOS>ATOM
      1 C1          2.0386   -1.2774   -0.6517 C.3       1 <0>         0.1035
      2 N1          0.6768   -0.8153   -0.3721 N.am      1 <0>        -0.7431
      3 C2         -0.3435   -1.6958   -0.3552 C.2       1 <0>         0.6903
      4 O1         -0.1337   -2.8736   -0.5720 O.2       1 <0>        -0.5215
      5 N2         -1.5963   -1.2707   -0.0980 N.am      1 <0>        -0.6686
      6 C3         -2.6657   -2.1607   -0.1839 C.ar      1 <0>         0.4105
      7 C4         -3.9655   -1.6931   -0.0250 C.ar      1 <0>        -0.2113
      8 C5         -5.0177   -2.5871   -0.1127 C.ar      1 <0>        -0.0137
      9 C6         -4.7325   -3.9238   -0.3574 C.ar      1 <0>        -0.2344
     10 C7         -3.4177   -4.3184   -0.5048 C.ar      1 <0>         0.1731
     11 N3         -2.4349   -3.4421   -0.4214 N.ar      1 <0>        -0.4718
     12 C8         -5.8466   -4.9334   -0.4604 C.3       1 <0>         0.1432
     13 N4         -6.2912   -5.0296   -1.8530 N.pl3     1 <0>        -0.6455
     14 C9         -7.3840   -5.8080   -2.1763 C.2       1 <0>         0.5246
     15 C10        -7.8631   -6.0707   -3.4578 C.2       1 <0>        -0.3243
     16 C11        -8.9935   -6.9089   -3.3122 C.2       1 <0>         0.2556
     17 N5         -9.1752   -7.1296   -2.0411 N.pl3     1 <0>        -0.3800
     18 N6         -8.1856   -6.4622   -1.3114 N.pl3     1 <0>        -0.3656
     19 C12        -8.0454   -6.4704    0.1469 C.3       1 <0>         0.0528
     20 C13        -7.3021   -5.5722   -4.7190 C.2       1 <0>         0.6018
     21 O2         -6.3202   -4.8532   -4.7062 O.2       1 <0>        -0.5096
     22 N7         -7.8742   -5.9107   -5.8914 N.am      1 <0>        -0.6551
     23 C14        -7.2963   -5.4964   -7.0981 C.ar      1 <0>         0.1567
     24 C15        -8.0998   -5.2386   -8.2008 C.ar      1 <0>        -0.1177
     25 C16        -7.5301   -4.8314   -9.3914 C.ar      1 <0>        -0.0652
     26 C17        -6.1549   -4.6785   -9.4896 C.ar      1 <0>         0.0427
     27 C18        -5.3482   -4.9334   -8.3869 C.ar      1 <0>         0.0733
     28 C19        -5.9208   -5.3380   -7.1907 C.ar      1 <0>        -0.0949
     29 O3         -3.9976   -4.7813   -8.4619 O.3       1 <0>        -0.2943
     30 C20        -3.4273   -4.7305   -9.7741 C.3       1 <0>         0.4138
     31 C21        -4.2719   -3.7757  -10.6285 C.3       1 <0>         0.4136
     32 O4         -5.6111   -4.2802  -10.6732 O.3       1 <0>        -0.2936
     33 F1         -4.2673   -2.4998  -10.0548 F         1 <0>        -0.1481
     34 F2         -3.7478   -3.7132  -11.9241 F         1 <0>        -0.1175
     35 F3         -2.1124   -4.2585   -9.6990 F         1 <0>        -0.1180
     36 F4         -3.4387   -6.0084  -10.3433 F         1 <0>        -0.1471
     37 H1          2.7231   -0.4296   -0.6227 H         1 <0>         0.0821
     38 H2          2.3351   -2.0097    0.0992 H         1 <0>         0.0630
     39 H3          2.0707   -1.7367   -1.6397 H         1 <0>         0.0628
     40 H4          0.5094    0.1244   -0.1991 H         1 <0>         0.4000
     41 H5         -1.7538   -0.3454    0.1469 H         1 <0>         0.4182
     42 H6         -4.1512   -0.6462    0.1647 H         1 <0>         0.1453
     43 H7         -6.0377   -2.2530    0.0069 H         1 <0>         0.1415
     44 H8         -3.1911   -5.3571   -0.6949 H         1 <0>         0.1611
     45 H9         -5.4871   -5.9065   -0.1257 H         1 <0>         0.0980
     46 H10        -6.6810   -4.6190    0.1665 H         1 <0>         0.0964
     47 H11        -5.8175   -4.5462   -2.5478 H         1 <0>         0.4519
     48 H12        -9.6008   -7.2985   -4.1158 H         1 <0>         0.2417
     49 H13        -8.5200   -5.5816    0.5625 H         1 <0>         0.1089
     50 H14        -8.5241   -7.3615    0.5529 H         1 <0>         0.1182
     51 H15        -6.9877   -6.4743    0.4101 H         1 <0>         0.1281
     52 H16        -8.6863   -6.4411   -5.8995 H         1 <0>         0.4160
     53 H17        -9.1708   -5.3569   -8.1276 H         1 <0>         0.1526
     54 H18        -8.1568   -4.6320  -10.2480 H         1 <0>         0.1595
     55 H19        -5.2957   -5.5340   -6.3321 H         1 <0>         0.1631
     56 H20        -9.8824   -7.6739   -1.6610 H         1 <0>         0.4772
@<TRIPOS>BOND
     1    1    2 1
     2    1   37 1
     3    1   38 1
     4    1   39 1
     5    2    3 am
     6    2   40 1
     7    3    4 2
     8    3    5 am
     9    5    6 1
    10    5   41 1
    11    6   11 ar
    12    6    7 ar
    13    7    8 ar
    14    7   42 1
    15    8    9 ar
    16    8   43 1
    17    9   10 ar
    18    9   12 1
    19   10   11 ar
    20   10   44 1
    21   12   13 1
    22   12   45 1
    23   12   46 1
    24   13   14 1
    25   13   47 1
    26   14   18 1
    27   14   15 2
    28   15   16 1
    29   15   20 1
    30   16   17 2
    31   16   48 1
    32   17   18 1
    33   17   56 1
    34   18   19 1
    35   19   49 1
    36   19   50 1
    37   19   51 1
    38   20   21 2
    39   20   22 am
    40   22   23 1
    41   22   52 1
    42   23   28 ar
    43   23   24 ar
    44   24   25 ar
    45   24   53 1
    46   25   26 ar
    47   25   54 1
    48   26   32 1
    49   26   27 ar
    50   27   28 ar
    51   27   29 1
    52   28   55 1
    53   29   30 1
    54   30   31 1
    55   30   35 1
    56   30   36 1
    57   31   32 1
    58   31   33 1
    59   31   34 1
@<TRIPOS>MOLECULE
CHEMBL437943
   40    43     0     0     0
SMALL
USER_CHARGES

@<TRIPOS>ATOM
      1 C1         -0.0123    1.5403    0.0086 C.3       1 <0>        -0.1451
      2 C2          0.0045    0.0103    0.0061 C.3       1 <0>        -0.0435
      3 C3         -1.4303   -0.5176    0.0356 C.3       1 <0>         0.1148
      4 N1         -2.0592   -0.3513    1.3395 N.am      1 <0>        -0.7149
      5 C4         -1.3864   -0.5313    2.4989 C.2       1 <0>         0.5938
      6 O1         -1.9567   -0.5181    3.5733 O.2       1 <0>        -0.5311
      7 C5          0.0687   -0.7446    2.4022 C.2       1 <0>         0.0026
      8 C6          0.7332   -0.4883    1.2269 C.2       1 <0>        -0.0921
      9 C7          2.0816   -0.7741    1.4361 C.ar      1 <0>        -0.1138
     10 C8          3.2033   -0.6958    0.6012 C.ar      1 <0>         0.0221
     11 C9          4.4277   -1.0710    1.1565 C.ar      1 <0>        -0.1723
     12 C10         4.5318   -1.5044    2.4837 C.ar      1 <0>        -0.0629
     13 C11         3.4447   -1.5849    3.3119 C.ar      1 <0>        -0.1270
     14 C12         2.2053   -1.2167    2.7846 C.ar      1 <0>         0.1312
     15 N2          0.9625   -1.1885    3.3447 N.pl3     1 <0>        -0.5360
     16 H1          0.7463   -1.4388    4.2565 H         1 <0>         0.4297
     17 C13         5.6445   -1.0087    0.3229 C.2       1 <0>         0.5657
     18 O2          5.5720   -0.6342   -0.8316 O.2       1 <0>        -0.5202
     19 N3          6.8358   -1.3669    0.8416 N.am      1 <0>        -0.6673
     20 C14         7.9716   -1.4023    0.0259 C.ar      1 <0>         0.0940
     21 C15         8.1360   -0.4717   -0.9975 C.ar      1 <0>        -0.0777
     22 C16         9.2774   -0.5474   -1.7784 C.ar      1 <0>        -0.1522
     23 C17        10.2088   -1.5360   -1.5190 C.ar      1 <0>         0.0818
     24 N4         10.0233   -2.4024   -0.5426 N.ar      1 <0>        -0.4662
     25 C18         8.9546   -2.3621    0.2281 C.ar      1 <0>         0.0781
     26 H2          1.0112    1.9149   -0.0019 H         1 <0>         0.0635
     27 H3         -0.5398    1.8993   -0.8751 H         1 <0>         0.0669
     28 H4         -0.5204    1.8965    0.9048 H         1 <0>         0.0559
     29 H5          0.5086   -0.3477   -0.8916 H         1 <0>         0.1065
     30 H6         -2.0182    0.0173   -0.7103 H         1 <0>         0.0959
     31 H7         -1.4214   -1.5774   -0.2190 H         1 <0>         0.0715
     32 H8         -2.9959   -0.1024    1.3774 H         1 <0>         0.4114
     33 H9          3.1247   -0.3617   -0.4228 H         1 <0>         0.1495
     34 H10         5.5020   -1.7841    2.8669 H         1 <0>         0.1276
     35 H11         3.5419   -1.9210    4.3337 H         1 <0>         0.1408
     36 H12         6.9055   -1.6002    1.7805 H         1 <0>         0.4128
     37 H13         7.3917    0.2898   -1.1778 H         1 <0>         0.1501
     38 H14         9.4379    0.1573   -2.5809 H         1 <0>         0.1399
     39 H15        11.1006   -1.5995   -2.1249 H         1 <0>         0.1589
     40 H16         8.8401   -3.0857    1.0216 H         1 <0>         0.1573
@<TRIPOS>BOND
     1    1    2 1
     2    1   26 1
     3    1   27 1
     4    1   28 1
     5    2    8 1
     6    2    3 1
     7    2   29 1
     8    3    4 1
     9    3   30 1
    10    3   31 1
    11    4    5 am
    12    4   32 1
    13    5    6 2
    14    5    7 1
    15    7   15 1
    16    7    8 2
    17    8    9 1
    18    9   14 ar
    19    9   10 ar
    20   10   11 ar
    21   10   33 1
    22   11   12 ar
    23   11   17 1
    24   12   13 ar
    25   12   34 1
    26   13   14 ar
    27   13   35 1
    28   14   15 1
    29   15   16 1
    30   17   18 2
    31   17   19 am
    32   19   20 1
    33   19   36 1
    34   20   25 ar
    35   20   21 ar
    36   21   22 ar
    37   21   37 1
    38   22   23 ar
    39   22   38 1
    40   23   24 ar
    41   23   39 1
    42   24   25 ar
    43   25   40 1
@<TRIPOS>MOLECULE
CHEMBL437943__1
   40    43     0     0     0
SMALL
USER_CHARGES

@<TRIPOS>ATOM
      1 C1         -0.0147    1.5117    0.0053 C.3       1 <0>        -0.1453
      2 C2         -0.0009   -0.0182   -0.0026 C.3       1 <0>        -0.0435
      3 C3          0.7229   -0.5174   -1.2535 C.3       1 <0>         0.1149
      4 N1          2.1658   -0.3295   -1.1754 N.am      1 <0>        -0.7149
      5 C4          2.8616   -0.5136   -0.0303 C.2       1 <0>         0.5937
      6 O1          4.0775   -0.4800   -0.0131 O.2       1 <0>        -0.5311
      7 C5          2.0806   -0.7563    1.1958 C.2       1 <0>         0.0027
      8 C6          0.7270   -0.5225    1.2164 C.2       1 <0>        -0.0921
      9 C7          0.2665   -0.8339    2.4950 C.ar      1 <0>        -0.1140
     10 C8         -1.0061   -0.7847    3.0775 C.ar      1 <0>         0.0221
     11 C9         -1.1021   -1.1806    4.4125 C.ar      1 <0>        -0.1724
     12 C10         0.0182   -1.6065    5.1360 C.ar      1 <0>        -0.0628
     13 C11         1.2683   -1.6589    4.5806 C.ar      1 <0>        -0.1270
     14 C12         1.3963   -1.2691    3.2459 C.ar      1 <0>         0.1313
     15 N2          2.4843   -1.2101    2.4267 N.pl3     1 <0>        -0.5360
     16 H1          3.3917   -1.4491    2.6725 H         1 <0>         0.4296
     17 C13        -2.4191   -1.1488    5.0789 C.2       1 <0>         0.5658
     18 O2         -3.4023   -0.7812    4.4653 O.2       1 <0>        -0.5202
     19 N3         -2.5315   -1.5274    6.3676 N.am      1 <0>        -0.6673
     20 C14        -3.7584   -1.4047    7.0281 C.ar      1 <0>         0.0940
     21 C15        -4.9536   -1.6138    6.3437 C.ar      1 <0>        -0.0777
     22 C16        -6.1429   -1.4807    7.0409 C.ar      1 <0>        -0.1522
     23 C17        -6.1057   -1.1473    8.3823 C.ar      1 <0>         0.0817
     24 N4         -4.9573   -0.9554    9.0013 N.ar      1 <0>        -0.4662
     25 C18        -3.8028   -1.0781    8.3770 C.ar      1 <0>         0.0781
     26 H2          1.0096    1.8843   -0.0042 H         1 <0>         0.0559
     27 H3         -0.5416    1.8748   -0.8771 H         1 <0>         0.0669
     28 H4         -0.5219    1.8659    0.9027 H         1 <0>         0.0635
     29 H5         -1.0247   -0.3925    0.0027 H         1 <0>         0.1065
     30 H6          0.5121   -1.5790   -1.3829 H         1 <0>         0.0715
     31 H7          0.3433    0.0237   -2.1202 H         1 <0>         0.0959
     32 H8          2.6455   -0.0619   -1.9749 H         1 <0>         0.4114
     33 H9         -1.8713   -0.4561    2.5208 H         1 <0>         0.1495
     34 H10        -0.1080   -1.9033    6.1668 H         1 <0>         0.1276
     35 H11         2.1228   -1.9890    5.1528 H         1 <0>         0.1408
     36 H12        -1.7617   -1.8849    6.8370 H         1 <0>         0.4128
     37 H13        -4.9528   -1.8730    5.2953 H         1 <0>         0.1502
     38 H14        -7.0884   -1.6352    6.5425 H         1 <0>         0.1399
     39 H15        -7.0302   -1.0422    8.9307 H         1 <0>         0.1589
     40 H16        -2.8824   -0.9184    8.9190 H         1 <0>         0.1572
@<TRIPOS>BOND
     1    1    2 1
     2    1   26 1
     3    1   27 1
     4    1   28 1
     5    2    8 1
     6    2    3 1
     7    2   29 1
     8    3    4 1
     9    3   30 1
    10    3   31 1
    11    4    5 am
    12    4   32 1
    13    5    6 2
    14    5    7 1
    15    7   15 1
    16    7    8 2
    17    8    9 1
    18    9   14 ar
    19    9   10 ar
    20   10   11 ar
    21   10   33 1
    22   11   12 ar
    23   11   17 1
    24   12   13 ar
    25   12   34 1
    26   13   14 ar
    27   13   35 1
    28   14   15 1
    29   15   16 1
    30   17   18 2
    31   17   19 am
    32   19   20 1
    33   19   36 1
    34   20   25 ar
    35   20   21 ar
    36   21   22 ar
    37   21   37 1
    38   22   23 ar
    39   22   38 1
    40   23   24 ar
    41   23   39 1
    42   24   25 ar
    43   25   40 1
@<TRIPOS>MOLECULE
CHEMBL221109
   43    46     0     0     0
SMALL
USER_CHARGES

@<TRIPOS>ATOM
      1 C1          0.4585    0.4884    0.9561 C.ar      1 <0>        -0.1054
      2 C2          1.6076    1.2518    1.0011 C.ar      1 <0>        -0.0999
      3 C3          2.4549    1.2978   -0.1049 C.ar      1 <0>         0.0177
      4 C4          2.1363    0.5716   -1.2514 C.ar      1 <0>        -0.1040
      5 C5          0.9840   -0.1888   -1.2854 C.ar      1 <0>        -0.0324
      6 C6          0.1465   -0.2303   -0.1835 C.ar      1 <0>        -0.1157
      7 Cl1         0.5845   -1.0937   -2.7121 Cl        1 <0>        -0.0708
      8 C7          3.6902    2.1165   -0.0621 C.2       1 <0>        -0.2040
      9 C8          4.0508    3.1299   -0.9685 C.2       1 <0>         0.0723
     10 N1          5.2047    3.6215   -0.6039 N.2       1 <0>        -0.2869
     11 N2          5.6429    2.9556    0.5466 N.pl3     1 <0>        -0.4646
     12 H1          6.4701    3.1267    1.0233 H         1 <0>         0.4423
     13 C9          4.7029    2.0294    0.8832 C.2       1 <0>         0.1917
     14 C10         4.7529    1.1045    2.0356 C.2       1 <0>        -0.1447
     15 C11         5.0814    1.4409    3.3654 C.2       1 <0>        -0.0772
     16 C12         5.0056    0.2925    4.1007 C.2       1 <0>        -0.0523
     17 N3          4.6408   -0.7344    3.2595 N.pl3     1 <0>        -0.5288
     18 H2          4.5146   -1.6594    3.5227 H         1 <0>         0.4215
     19 C13         4.4814   -0.2472    2.0125 C.2       1 <0>         0.0824
     20 C14         5.2686    0.1735    5.5394 C.2       1 <0>         0.5910
     21 O1          5.5864    1.1561    6.1831 O.2       1 <0>        -0.5196
     22 N4          5.1581   -1.0240    6.1478 N.am      1 <0>        -0.7283
     23 C15         5.4207   -1.1428    7.5842 C.3       1 <0>         0.1615
     24 C16         5.2292   -2.5747    8.0131 C.ar      1 <0>        -0.0686
     25 C17         3.9899   -3.0288    8.4378 C.ar      1 <0>        -0.1549
     26 C18         3.8523   -4.3487    8.8237 C.ar      1 <0>         0.1007
     27 N5          4.8821   -5.1718    8.7915 N.ar      1 <0>        -0.4778
     28 C19         6.0750   -4.7748    8.3934 C.ar      1 <0>         0.1007
     29 C20         6.2869   -3.4709    7.9870 C.ar      1 <0>        -0.1551
     30 H3         -0.1960    0.4488    1.8142 H         1 <0>         0.1305
     31 H4          1.8497    1.8128    1.8916 H         1 <0>         0.1270
     32 H5          2.7889    0.6038   -2.1113 H         1 <0>         0.1340
     33 H6         -0.7536   -0.8264   -0.2139 H         1 <0>         0.1311
     34 H7          3.4713    3.4477   -1.8226 H         1 <0>         0.1871
     35 H8          5.3438    2.4220    3.7330 H         1 <0>         0.1536
     36 H9          4.1925   -0.8188    1.1429 H         1 <0>         0.1806
     37 H10         4.9048   -1.8072    5.6347 H         1 <0>         0.3962
     38 H11         6.4452   -0.8349    7.7930 H         1 <0>         0.0861
     39 H12         4.7300   -0.5034    8.1339 H         1 <0>         0.0864
     40 H13         3.1429   -2.3594    8.4671 H         1 <0>         0.1385
     41 H14         2.8903   -4.7102    9.1558 H         1 <0>         0.1600
     42 H15         6.8948   -5.4777    8.3809 H         1 <0>         0.1599
     43 H16         7.2649   -3.1530    7.6572 H         1 <0>         0.1382
@<TRIPOS>BOND
     1    1    6 ar
     2    1    2 ar
     3    1   30 1
     4    2    3 ar
     5    2   31 1
     6    3    4 ar
     7    3    8 1
     8    4    5 ar
     9    4   32 1
    10    5    6 ar
    11    5    7 1
    12    6   33 1
    13    8   13 2
    14    8    9 1
    15    9   10 2
    16    9   34 1
    17   10   11 1
    18   11   12 1
    19   11   13 1
    20   13   14 1
    21   14   19 2
    22   14   15 1
    23   15   16 2
    24   15   35 1
    25   16   17 1
    26   16   20 1
    27   17   18 1
    28   17   19 1
    29   19   36 1
    30   20   21 2
    31   20   22 am
    32   22   23 1
    33   22   37 1
    34   23   24 1
    35   23   38 1
    36   23   39 1
    37   24   29 ar
    38   24   25 ar
    39   25   26 ar
    40   25   40 1
    41   26   27 ar
    42   26   41 1
    43   27   28 ar
    44   28   29 ar
    45   28   42 1
    46   29   43 1
@<TRIPOS>MOLECULE
CHEMBL221109__1
   43    46     0     0     0
SMALL
USER_CHARGES

@<TRIPOS>ATOM
      1 C1         -0.0167    1.3786    0.0096 C.ar      1 <0>        -0.1038
      2 C2          1.1676    2.0878    0.0021 C.ar      1 <0>        -0.1106
      3 C3          2.3840    1.4085   -0.0131 C.ar      1 <0>         0.0145
      4 C4          2.3983    0.0151   -0.0207 C.ar      1 <0>        -0.0967
      5 C5          1.2076   -0.6849   -0.0131 C.ar      1 <0>        -0.0327
      6 C6          0.0021   -0.0041    0.0020 C.ar      1 <0>        -0.1163
      7 Cl1         1.2227   -2.4208   -0.0230 Cl        1 <0>        -0.0708
      8 C7          3.6597    2.1660   -0.0217 C.2       1 <0>        -0.2032
      9 C8          3.9817    3.1931   -0.8578 C.2       1 <0>         0.0827
     10 N1          5.2257    3.6075   -0.5427 N.pl3     1 <0>        -0.4696
     11 N2          5.6983    2.8234    0.5164 N.2       1 <0>        -0.2799
     12 H1          5.7109    4.3266   -0.9767 H         1 <0>         0.4446
     13 C9          4.7639    1.9580    0.8421 C.2       1 <0>         0.1752
     14 C10         4.8515    0.9411    1.9196 C.2       1 <0>        -0.1176
     15 C11         6.0090    0.2429    2.3146 C.2       1 <0>        -0.0658
     16 C12         5.6459   -0.5903    3.3354 C.2       1 <0>        -0.0581
     17 N3          4.3004   -0.4148    3.5685 N.pl3     1 <0>        -0.5328
     18 H2          3.7794   -0.8811    4.2408 H         1 <0>         0.4194
     19 C13         3.8255    0.5150    2.7144 C.2       1 <0>         0.0722
     20 C14         6.5335   -1.5100    4.0557 C.2       1 <0>         0.5928
     21 O1          7.7114   -1.5775    3.7574 O.2       1 <0>        -0.5206
     22 N4          6.0445   -2.2801    5.0478 N.am      1 <0>        -0.7295
     23 C15         6.9308   -3.1985    5.7669 C.3       1 <0>         0.1615
     24 C16         6.1431   -3.9366    6.8185 C.ar      1 <0>        -0.0672
     25 C17         6.0162   -3.4239    8.1004 C.ar      1 <0>        -0.1550
     26 C18         5.2860   -4.1290    9.0385 C.ar      1 <0>         0.1001
     27 N5          4.7148   -5.2757    8.7258 N.ar      1 <0>        -0.4786
     28 C19         4.8145   -5.7932    7.5170 C.ar      1 <0>         0.1002
     29 C20         5.5233   -5.1418    6.5254 C.ar      1 <0>        -0.1547
     30 H3         -0.9598    1.9047    0.0260 H         1 <0>         0.1328
     31 H4          1.1513    3.1677    0.0077 H         1 <0>         0.1289
     32 H5          3.3383   -0.5164   -0.0328 H         1 <0>         0.1337
     33 H6         -0.9269   -0.5549    0.0079 H         1 <0>         0.1317
     34 H7          3.3526    3.6020   -1.6347 H         1 <0>         0.1816
     35 H8          6.9969    0.3459    1.8906 H         1 <0>         0.1536
     36 H9          2.8041    0.8626    2.6654 H         1 <0>         0.1753
     37 H10         5.1056   -2.2264    5.2856 H         1 <0>         0.3959
     38 H11         7.3595   -3.9139    5.0652 H         1 <0>         0.0856
     39 H12         7.7313   -2.6325    6.2433 H         1 <0>         0.0856
     40 H13         6.4822   -2.4857    8.3627 H         1 <0>         0.1383
     41 H14         5.1824   -3.7364   10.0392 H         1 <0>         0.1594
     42 H15         4.3331   -6.7349    7.2982 H         1 <0>         0.1595
     43 H16         5.5971   -5.5682    5.5359 H         1 <0>         0.1384
@<TRIPOS>BOND
     1    1    6 ar
     2    1    2 ar
     3    1   30 1
     4    2    3 ar
     5    2   31 1
     6    3    4 ar
     7    3    8 1
     8    4    5 ar
     9    4   32 1
    10    5    6 ar
    11    5    7 1
    12    6   33 1
    13    8   13 1
    14    8    9 2
    15    9   34 1
    16    9   10 1
    17   10   11 1
    18   10   12 1
    19   11   13 2
    20   13   14 1
    21   14   19 2
    22   14   15 1
    23   15   16 2
    24   15   35 1
    25   16   17 1
    26   16   20 1
    27   17   18 1
    28   17   19 1
    29   19   36 1
    30   20   21 2
    31   20   22 am
    32   22   23 1
    33   22   37 1
    34   23   24 1
    35   23   38 1
    36   23   39 1
    37   24   29 ar
    38   24   25 ar
    39   25   26 ar
    40   25   40 1
    41   26   27 ar
    42   26   41 1
    43   27   28 ar
    44   28   29 ar
    45   28   42 1
    46   29   43 1
@<TRIPOS>MOLECULE
CHEMBL80837
   44    46     0     0     0
SMALL
USER_CHARGES

@<TRIPOS>ATOM
      1 C1         -0.1884    1.4667   -0.0440 C.3       1 <0>        -0.1347
      2 C2         -0.1906   -0.0399   -0.0090 C.2       1 <0>         0.0263
      3 C3         -0.3681   -0.8205   -1.2354 C.ar      1 <0>        -0.1283
      4 C4         -0.5403   -0.1892   -2.4727 C.ar      1 <0>        -0.0376
      5 C5         -0.7033   -0.9409   -3.6010 C.ar      1 <0>        -0.0598
      6 C6         -0.6992   -2.3334   -3.5280 C.ar      1 <0>         0.1695
      7 C7         -0.5300   -2.9737   -2.3120 C.ar      1 <0>        -0.1171
      8 C8         -0.3631   -2.2252   -1.1561 C.ar      1 <0>         0.1652
      9 O1         -0.1967   -2.8304    0.0396 O.3       1 <0>        -0.2641
     10 C9         -0.0339   -2.1210    1.1673 C.2       1 <0>         0.5167
     11 O2          0.1134   -2.7102    2.2230 O.2       1 <0>        -0.4466
     12 C10        -0.0224   -0.7108    1.1601 C.2       1 <0>        -0.2011
     13 C11         0.1700    0.0498    2.4467 C.3       1 <0>        -0.0253
     14 C12         1.6430    0.1847    2.7350 C.ar      1 <0>        -0.0846
     15 C13         2.2780   -0.7442    3.5380 C.ar      1 <0>        -0.1045
     16 C14         3.6292   -0.6205    3.8025 C.ar      1 <0>        -0.1190
     17 C15         4.3455    0.4318    3.2636 C.ar      1 <0>        -0.1197
     18 C16         3.7107    1.3602    2.4599 C.ar      1 <0>        -0.1212
     19 C17         2.3604    1.2341    2.1919 C.ar      1 <0>        -0.1176
     20 O3         -0.8629   -3.0677   -4.6589 O.3       1 <0>        -0.2976
     21 C18         0.2286   -3.3396   -5.3998 C.2       1 <0>         0.6486
     22 O4          1.3295   -3.0127   -5.0026 O.2       1 <0>        -0.5447
     23 N1          0.0997   -3.9743   -6.5818 N.am      1 <0>        -0.5948
     24 C19         1.2868   -4.2701   -7.3877 C.3       1 <0>         0.1029
     25 C20        -1.2275   -4.3684   -7.0606 C.3       1 <0>         0.0773
     26 Cl1        -0.9174   -0.1581   -5.1356 Cl        1 <0>        -0.0361
     27 H1          0.8380    1.8270   -0.1127 H         1 <0>         0.0956
     28 H2         -0.7530    1.8108   -0.9105 H         1 <0>         0.0827
     29 H3         -0.6485    1.8520    0.8659 H         1 <0>         0.0923
     30 H4         -0.5446    0.8890   -2.5348 H         1 <0>         0.1607
     31 H5         -0.5284   -4.0526   -2.2637 H         1 <0>         0.1626
     32 H6         -0.2740    1.0408    2.3529 H         1 <0>         0.0948
     33 H7         -0.3121   -0.4886    3.2627 H         1 <0>         0.0948
     34 H8          1.7184   -1.5664    3.9590 H         1 <0>         0.1281
     35 H9          4.1252   -1.3459    4.4304 H         1 <0>         0.1228
     36 H10         5.4010    0.5289    3.4708 H         1 <0>         0.1217
     37 H11         4.2702    2.1826    2.0391 H         1 <0>         0.1223
     38 H12         1.8652    1.9574    1.5610 H         1 <0>         0.1214
     39 H13         1.9627   -4.9082   -6.8184 H         1 <0>         0.0682
     40 H14         0.9870   -4.7824   -8.3018 H         1 <0>         0.0887
     41 H15         1.7941   -3.3395   -7.6424 H         1 <0>         0.0679
     42 H16        -1.6540   -3.5605   -7.6551 H         1 <0>         0.0632
     43 H17        -1.1408   -5.2648   -7.6748 H         1 <0>         0.0803
     44 H18        -1.8753   -4.5733   -6.2083 H         1 <0>         0.0799
@<TRIPOS>BOND
     1    1    2 1
     2    1   27 1
     3    1   28 1
     4    1   29 1
     5    2   12 2
     6    2    3 1
     7    3    8 ar
     8    3    4 ar
     9    4    5 ar
    10    4   30 1
    11    5    6 ar
    12    5   26 1
    13    6    7 ar
    14    6   20 1
    15    7    8 ar
    16    7   31 1
    17    8    9 1
    18    9   10 1
    19   10   11 2
    20   10   12 1
    21   12   13 1
    22   13   14 1
    23   13   32 1
    24   13   33 1
    25   14   19 ar
    26   14   15 ar
    27   15   16 ar
    28   15   34 1
    29   16   17 ar
    30   16   35 1
    31   17   18 ar
    32   17   36 1
    33   18   19 ar
    34   18   37 1
    35   19   38 1
    36   20   21 1
    37   21   22 2
    38   21   23 am
    39   23   24 1
    40   23   25 1
    41   24   39 1
    42   24   40 1
    43   24   41 1
    44   25   42 1
    45   25   43 1
    46   25   44 1
@<TRIPOS>MOLECULE
CHEMBL569181
   62    65     0     0     0
SMALL
USER_CHARGES

@<TRIPOS>ATOM
      1 C1          0.2556    1.4998   -0.0108 C.3       1 <0>        -0.1014
      2 C2          0.2024   -0.0062   -0.0134 C.ar      1 <0>        -0.2386
      3 C3         -0.0220   -0.7041   -1.1858 C.ar      1 <0>         0.1895
      4 N1         -0.0630   -2.0272   -1.1545 N.ar      1 <0>        -0.5563
      5 C4          0.1075   -2.6886   -0.0187 C.ar      1 <0>         0.5588
      6 N2          0.3247   -2.0602    1.1260 N.ar      1 <0>        -0.5503
      7 C5          0.3845   -0.7306    1.1686 C.ar      1 <0>         0.2993
      8 C6          0.6339   -0.0293    2.4499 C.2       1 <0>        -0.1538
      9 C7          0.1871   -0.4322    3.7248 C.2       1 <0>        -0.0509
     10 C8          0.6379    0.4955    4.6194 C.2       1 <0>        -0.0609
     11 N3          1.3464    1.4519    3.9271 N.pl3     1 <0>        -0.5291
     12 H1          1.7772    2.2272    4.3198 H         1 <0>         0.4209
     13 C9          1.3509    1.1350    2.6184 C.2       1 <0>         0.0717
     14 C10         0.4069    0.4768    6.0685 C.2       1 <0>         0.5930
     15 O1         -0.2386   -0.4246    6.5701 O.2       1 <0>        -0.5226
     16 N4          0.9095    1.4580    6.8438 N.am      1 <0>        -0.7198
     17 C11         0.6789    1.4394    8.2904 C.3       1 <0>         0.1936
     18 H2          0.6769    0.4086    8.6447 H         1 <0>         0.1151
     19 C12        -0.6720    2.0876    8.5998 C.3       1 <0>         0.0671
     20 O2         -0.6301    3.4703    8.2415 O.3       1 <0>        -0.5679
     21 C13         1.7749    2.2068    8.9837 C.ar      1 <0>        -0.0798
     22 C14         2.2474    3.3848    8.4353 C.ar      1 <0>        -0.0878
     23 C15         3.2527    4.0892    9.0706 C.ar      1 <0>        -0.1063
     24 C16         3.7866    3.6161   10.2547 C.ar      1 <0>        -0.1060
     25 C17         3.3142    2.4376   10.8039 C.ar      1 <0>        -0.0330
     26 C18         2.3036    1.7360   10.1706 C.ar      1 <0>        -0.0995
     27 Cl1         3.9842    1.8429   12.2909 Cl        1 <0>        -0.0648
     28 N5          0.0566   -4.0725   -0.0296 N.pl3     1 <0>        -0.6309
     29 C19        -0.0459   -4.7600   -1.2457 C.ar      1 <0>         0.1948
     30 C20         0.5330   -4.2341   -2.3930 C.ar      1 <0>        -0.1436
     31 C21         0.4320   -4.9120   -3.5927 C.ar      1 <0>        -0.0617
     32 C22        -0.2452   -6.1159   -3.6563 C.ar      1 <0>        -0.2185
     33 C23        -0.8267   -6.6483   -2.5156 C.ar      1 <0>         0.1330
     34 C24        -0.7230   -5.9739   -1.3051 C.ar      1 <0>         0.0251
     35 O3         -1.2868   -6.4965   -0.1821 O.3       1 <0>        -0.3213
     36 C25        -2.6393   -6.1286    0.0962 C.3       1 <0>         0.0352
     37 O4         -1.4928   -7.8323   -2.5803 O.3       1 <0>        -0.3065
     38 C26        -1.5542   -8.4732   -3.8560 C.3       1 <0>         0.0254
     39 H3          1.2800    1.8275   -0.1877 H         1 <0>         0.0697
     40 H4         -0.3910    1.8876   -0.7980 H         1 <0>         0.0698
     41 H5         -0.0838    1.8737    0.9552 H         1 <0>         0.0734
     42 H6         -0.1626   -0.1756   -2.1171 H         1 <0>         0.1704
     43 H7         -0.4014   -1.3091    3.9511 H         1 <0>         0.1553
     44 H8          1.8325    1.6994    1.8336 H         1 <0>         0.1845
     45 H9          1.4240    2.1766    6.4439 H         1 <0>         0.3965
     46 H10        -1.4542    1.5878    8.0285 H         1 <0>         0.0600
     47 H11        -0.8842    1.9946    9.6649 H         1 <0>         0.0600
     48 H12        -1.4550    3.9457    8.4107 H         1 <0>         0.3825
     49 H13         1.8311    3.7544    7.5098 H         1 <0>         0.1283
     50 H14         3.6214    5.0093    8.6417 H         1 <0>         0.1343
     51 H15         4.5725    4.1662   10.7507 H         1 <0>         0.1349
     52 H16         1.9314    0.8182   10.6012 H         1 <0>         0.1359
     53 H17         0.0920   -4.5658    0.8049 H         1 <0>         0.4289
     54 H18         1.0624   -3.2938   -2.3476 H         1 <0>         0.1431
     55 H19         0.8829   -4.5003   -4.4834 H         1 <0>         0.1315
     56 H20        -0.3216   -6.6423   -4.5962 H         1 <0>         0.1329
     57 H21        -2.9655   -6.6127    1.0167 H         1 <0>         0.0938
     58 H22        -2.7051   -5.0467    0.2117 H         1 <0>         0.0406
     59 H23        -3.2790   -6.4456   -0.7274 H         1 <0>         0.0473
     60 H24        -2.0536   -7.8169   -4.5687 H         1 <0>         0.0561
     61 H25        -0.5437   -8.6862   -4.2047 H         1 <0>         0.0574
     62 H26        -2.1122   -9.4054   -3.7678 H         1 <0>         0.1013
@<TRIPOS>BOND
     1    1    2 1
     2    1   39 1
     3    1   40 1
     4    1   41 1
     5    2    7 ar
     6    2    3 ar
     7    3    4 ar
     8    3   42 1
     9    4    5 ar
    10    5    6 ar
    11    5   28 1
    12    6    7 ar
    13    7    8 1
    14    8   13 2
    15    8    9 1
    16    9   10 2
    17    9   43 1
    18   10   11 1
    19   10   14 1
    20   11   12 1
    21   11   13 1
    22   13   44 1
    23   14   15 2
    24   14   16 am
    25   16   17 1
    26   16   45 1
    27   17   18 1
    28   17   19 1
    29   17   21 1
    30   19   20 1
    31   19   46 1
    32   19   47 1
    33   20   48 1
    34   21   26 ar
    35   21   22 ar
    36   22   23 ar
    37   22   49 1
    38   23   24 ar
    39   23   50 1
    40   24   25 ar
    41   24   51 1
    42   25   26 ar
    43   25   27 1
    44   26   52 1
    45   28   29 1
    46   28   53 1
    47   29   34 ar
    48   29   30 ar
    49   30   31 ar
    50   30   54 1
    51   31   32 ar
    52   31   55 1
    53   32   33 ar
    54   32   56 1
    55   33   34 ar
    56   33   37 1
    57   34   35 1
    58   35   36 1
    59   36   57 1
    60   36   58 1
    61   36   59 1
    62   37   38 1
    63   38   60 1
    64   38   61 1
    65   38   62 1
@<TRIPOS>MOLECULE
CHEMBL565459
   54    57     0     0     0
SMALL
USER_CHARGES

@<TRIPOS>ATOM
      1 C1         -0.3527    1.4878    0.0468 C.3       1 <0>        -0.1009
      2 C2         -0.2414   -0.0149    0.0286 C.ar      1 <0>        -0.2407
      3 C3         -0.4511   -0.7258   -1.1386 C.ar      1 <0>         0.1905
      4 N1         -0.3458   -2.0455   -1.1214 N.ar      1 <0>        -0.5572
      5 C4         -0.0433   -2.6914   -0.0044 C.ar      1 <0>         0.5594
      6 N2          0.1650   -2.0504    1.1349 N.ar      1 <0>        -0.5538
      7 C5          0.0821   -0.7225    1.1904 C.ar      1 <0>         0.2986
      8 C6          0.3223   -0.0063    2.4652 C.2       1 <0>        -0.1534
      9 C7         -0.0086   -0.4639    3.7569 C.2       1 <0>        -0.0523
     10 C8          0.3867    0.5015    4.6378 C.2       1 <0>        -0.0604
     11 N3          0.9486    1.5340    3.9208 N.pl3     1 <0>        -0.5291
     12 H1          1.3135    2.3490    4.2997 H         1 <0>         0.4210
     13 C9          0.9160    1.2284    2.6098 C.2       1 <0>         0.0706
     14 C10         0.2375    0.4484    6.0968 C.2       1 <0>         0.5921
     15 O1         -0.2785   -0.5212    6.6207 O.2       1 <0>        -0.5248
     16 N4          0.6720    1.4734    6.8564 N.am      1 <0>        -0.7188
     17 C11         0.5231    1.4203    8.3128 C.3       1 <0>         0.1925
     18 H2          0.6519    0.3931    8.6540 H         1 <0>         0.1122
     19 C12        -0.8714    1.9156    8.7013 C.3       1 <0>         0.0676
     20 O2         -0.9989    3.2970    8.3583 O.3       1 <0>        -0.5670
     21 C13         1.5653    2.2980    8.9567 C.ar      1 <0>        -0.0931
     22 C14         1.8772    3.5237    8.3987 C.ar      1 <0>        -0.0918
     23 C15         2.8332    4.3287    8.9893 C.ar      1 <0>        -0.1209
     24 C16         3.4770    3.9083   10.1380 C.ar      1 <0>        -0.1155
     25 C17         3.1645    2.6830   10.6965 C.ar      1 <0>        -0.1183
     26 C18         2.2054    1.8798   10.1083 C.ar      1 <0>        -0.1083
     27 N5          0.0571   -4.0729   -0.0296 N.pl3     1 <0>        -0.6425
     28 C19        -0.0448   -4.7591   -1.2435 C.ar      1 <0>         0.1665
     29 C20         0.5392   -4.2358   -2.3900 C.ar      1 <0>        -0.1106
     30 C21         0.4371   -4.9165   -3.5873 C.ar      1 <0>        -0.1014
     31 C22        -0.2455   -6.1177   -3.6456 C.ar      1 <0>        -0.1370
     32 C23        -0.8284   -6.6412   -2.5061 C.ar      1 <0>        -0.1002
     33 C24        -0.7252   -5.9685   -1.3043 C.ar      1 <0>        -0.1467
     34 H3          0.6189    1.9269   -0.1800 H         1 <0>         0.0691
     35 H4         -1.0792    1.8074   -0.7003 H         1 <0>         0.0695
     36 H5         -0.6782    1.8161    1.0339 H         1 <0>         0.0732
     37 H6         -0.6985   -0.2100   -2.0547 H         1 <0>         0.1692
     38 H7         -0.4849   -1.4014    4.0033 H         1 <0>         0.1549
     39 H8          1.2901    1.8472    1.8076 H         1 <0>         0.1843
     40 H9          1.0833    2.2463    6.4388 H         1 <0>         0.3963
     41 H10        -1.6246    1.3374    8.1661 H         1 <0>         0.0576
     42 H11        -1.0145    1.7931    9.7749 H         1 <0>         0.0586
     43 H12        -1.8602    3.6786    8.5768 H         1 <0>         0.3810
     44 H13         1.3742    3.8522    7.5013 H         1 <0>         0.1207
     45 H14         3.0774    5.2860    8.5530 H         1 <0>         0.1230
     46 H15         4.2245    4.5370   10.5990 H         1 <0>         0.1229
     47 H16         3.6678    2.3543   11.5938 H         1 <0>         0.1248
     48 H17         1.9586    0.9241   10.5467 H         1 <0>         0.1243
     49 H18         0.1980   -4.5641    0.7949 H         1 <0>         0.4232
     50 H19         1.0721   -3.2976   -2.3452 H         1 <0>         0.1263
     51 H20         0.8906   -4.5100   -4.4792 H         1 <0>         0.1238
     52 H21        -0.3238   -6.6480   -4.5831 H         1 <0>         0.1222
     53 H22        -1.3614   -7.5793   -2.5551 H         1 <0>         0.1252
     54 H23        -1.1769   -6.3801   -0.4138 H         1 <0>         0.1238
@<TRIPOS>BOND
     1    1    2 1
     2    1   34 1
     3    1   35 1
     4    1   36 1
     5    2    7 ar
     6    2    3 ar
     7    3    4 ar
     8    3   37 1
     9    4    5 ar
    10    5    6 ar
    11    5   27 1
    12    6    7 ar
    13    7    8 1
    14    8   13 2
    15    8    9 1
    16    9   10 2
    17    9   38 1
    18   10   11 1
    19   10   14 1
    20   11   12 1
    21   11   13 1
    22   13   39 1
    23   14   15 2
    24   14   16 am
    25   16   17 1
    26   16   40 1
    27   17   18 1
    28   17   19 1
    29   17   21 1
    30   19   20 1
    31   19   41 1
    32   19   42 1
    33   20   43 1
    34   21   26 ar
    35   21   22 ar
    36   22   23 ar
    37   22   44 1
    38   23   24 ar
    39   23   45 1
    40   24   25 ar
    41   24   46 1
    42   25   26 ar
    43   25   47 1
    44   26   48 1
    45   27   28 1
    46   27   49 1
    47   28   33 ar
    48   28   29 ar
    49   29   30 ar
    50   29   50 1
    51   30   31 ar
    52   30   51 1
    53   31   32 ar
    54   31   52 1
    55   32   33 ar
    56   32   53 1
    57   33   54 1
@<TRIPOS>MOLECULE
CHEMBL332551
   35    38     0     0     0
SMALL
USER_CHARGES

@<TRIPOS>ATOM
      1 C1         -0.0165    1.3625    0.0095 C.ar      1 <0>        -0.1084
      2 C2          1.1715    2.0852    0.0021 C.ar      1 <0>        -0.1197
      3 C3          2.3792    1.4542   -0.0185 C.ar      1 <0>        -0.0590
      4 C4          2.4367    0.0490   -0.0354 C.ar      1 <0>         0.0433
      5 C5          1.2212   -0.6778   -0.0152 C.ar      1 <0>        -0.0714
      6 C6          0.0021   -0.0041    0.0020 C.ar      1 <0>        -0.0791
      7 C7          1.6087   -2.0947   -0.0119 C.2       1 <0>        -0.1138
      8 C8          0.8066   -3.1953    0.1252 C.2       1 <0>         0.1496
      9 C9          1.1983   -4.6288    0.0157 C.3       1 <0>        -0.1172
     10 C10         2.2426   -4.8866   -1.0532 C.3       1 <0>         0.1197
     11 N1          3.5510   -4.3751   -0.7387 N.am      1 <0>        -0.7101
     12 C11         3.9429   -3.2546   -0.1881 C.2       1 <0>         0.6013
     13 O1          5.0727   -3.1879    0.2565 O.2       1 <0>        -0.5142
     14 C12         3.0728   -2.0706   -0.0847 C.2       1 <0>         0.1155
     15 N2          3.4640   -0.8089   -0.0719 N.2       1 <0>        -0.3928
     16 C13        -0.5440   -2.9440    0.4021 C.2       1 <0>        -0.2495
     17 C14        -1.0776   -2.5258    1.6262 C.2       1 <0>         0.4516
     18 N3         -2.4224   -2.4078    1.4400 N.pl3     1 <0>        -0.5923
     19 H1         -3.0699   -2.1338    2.1082 H         1 <0>         0.4366
     20 C15        -2.6965   -2.7443    0.1414 C.cat     1 <0>         0.5432
     21 N4         -1.5861   -3.0555   -0.4737 N.pl3     1 <0>        -0.4703
     22 N5         -3.9530   -2.7486   -0.4320 N.pl3     1 <0>        -0.8295
     23 O2         -0.3950   -2.2870    2.7667 O.3       1 <0>        -0.6098
     24 H2         -0.9614    1.8853    0.0259 H         1 <0>         0.1255
     25 H3          1.1364    3.1646    0.0124 H         1 <0>         0.1313
     26 H4          3.2912    2.0326   -0.0221 H         1 <0>         0.1323
     27 H5         -0.9243   -0.5591    0.0098 H         1 <0>         0.1127
     28 H6          1.5931   -4.9578    0.9769 H         1 <0>         0.1071
     29 H7          0.3100   -5.2173   -0.2143 H         1 <0>         0.1038
     30 H8          2.3200   -5.9626   -1.2092 H         1 <0>         0.1012
     31 H9          1.9063   -4.4287   -1.9834 H         1 <0>         0.0657
     32 H10         4.2768   -4.9719   -0.9795 H         1 <0>         0.4039
     33 H11        -4.7277   -2.4990    0.0955 H         1 <0>         0.4282
     34 H12        -4.0606   -3.0013   -1.3623 H         1 <0>         0.4261
     35 H13        -1.5140   -3.3251   -1.4027 H         1 <0>         0.4386
@<TRIPOS>BOND
     1    1    6 ar
     2    1    2 ar
     3    1   24 1
     4    2    3 ar
     5    2   25 1
     6    3    4 ar
     7    3   26 1
     8    4   15 1
     9    4    5 ar
    10    5    6 ar
    11    5    7 1
    12    6   27 1
    13    7   14 1
    14    7    8 2
    15    8    9 1
    16    8   16 1
    17    9   10 1
    18    9   28 1
    19    9   29 1
    20   10   11 1
    21   10   30 1
    22   10   31 1
    23   11   12 am
    24   11   32 1
    25   12   13 2
    26   12   14 1
    27   14   15 2
    28   16   21 1
    29   16   17 2
    30   17   18 1
    31   17   23 1
    32   18   19 1
    33   18   20 1
    34   20   21 2
    35   20   22 1
    36   21   35 1
    37   22   33 1
    38   22   34 1
@<TRIPOS>MOLECULE
CHEMBL220112
   48    51     0     0     0
SMALL
USER_CHARGES

@<TRIPOS>ATOM
      1 C1          1.3143    1.2623    1.4487 C.ar      1 <0>        -0.1153
      2 C2          2.4804    1.9653    1.2102 C.ar      1 <0>        -0.1179
      3 C3          3.6509    1.2867    0.9268 C.ar      1 <0>        -0.1081
      4 C4          3.6553   -0.0950    0.8822 C.ar      1 <0>        -0.0930
      5 C5          2.4894   -0.7980    1.1216 C.ar      1 <0>        -0.0921
      6 C6          1.3187   -0.1193    1.4037 C.ar      1 <0>        -0.1209
      7 C7          4.9311   -0.8347    0.5722 C.3       1 <0>         0.1928
      8 H1          5.6301   -0.1615    0.0759 H         1 <0>         0.1127
      9 C8          5.5527   -1.3468    1.8731 C.3       1 <0>         0.0673
     10 O1          4.5942   -2.1358    2.5808 O.3       1 <0>        -0.5673
     11 N1          4.6368   -1.9684   -0.3078 N.am      1 <0>        -0.7186
     12 C9          5.5974   -2.4636   -1.1131 C.2       1 <0>         0.5906
     13 O2          6.7092   -1.9690   -1.1093 O.2       1 <0>        -0.5216
     14 C10         5.3025   -3.5991   -1.9945 C.2       1 <0>        -0.0516
     15 C11         6.1823   -4.1970   -2.8510 C.2       1 <0>        -0.0572
     16 C12         5.4869   -5.2393   -3.4990 C.2       1 <0>        -0.1410
     17 C13         4.1985   -5.2364   -3.0079 C.2       1 <0>         0.0572
     18 N2          4.0932   -4.2489   -2.0960 N.pl3     1 <0>        -0.5281
     19 H2          3.2928   -4.0299   -1.5937 H         1 <0>         0.4210
     20 C14         6.0368   -6.1622   -4.5148 C.2       1 <0>         0.1880
     21 C15         6.8101   -5.8144   -5.6138 C.2       1 <0>        -0.1959
     22 C16         7.1111   -7.0017   -6.3054 C.2       1 <0>         0.0722
     23 N3          6.5598   -8.0022   -5.6720 N.2       1 <0>        -0.2881
     24 N4          5.8856   -7.5154   -4.5462 N.pl3     1 <0>        -0.4690
     25 H3          5.3943   -8.0486   -3.9018 H         1 <0>         0.4402
     26 C17         7.2387   -4.4457   -5.9892 C.ar      1 <0>         0.0169
     27 C18         6.2903   -3.4386   -6.1635 C.ar      1 <0>        -0.0973
     28 C19         6.6944   -2.1663   -6.5125 C.ar      1 <0>        -0.1043
     29 C20         8.0380   -1.8882   -6.6896 C.ar      1 <0>        -0.1137
     30 C21         8.9845   -2.8838   -6.5184 C.ar      1 <0>        -0.0306
     31 C22         8.5916   -4.1596   -6.1635 C.ar      1 <0>        -0.1024
     32 Cl1        10.6683   -2.5266   -6.7437 Cl        1 <0>        -0.0719
     33 H4          0.4008    1.7923    1.6746 H         1 <0>         0.1230
     34 H5          2.4769    3.0447    1.2450 H         1 <0>         0.1249
     35 H6          4.5618    1.8359    0.7397 H         1 <0>         0.1245
     36 H7          2.4929   -1.8774    1.0865 H         1 <0>         0.1200
     37 H8          0.4077   -0.6686    1.5904 H         1 <0>         0.1228
     38 H9          6.4264   -1.9567    1.6429 H         1 <0>         0.0576
     39 H10         5.8531   -0.5001    2.4902 H         1 <0>         0.0590
     40 H11         4.9205   -2.4941    3.4175 H         1 <0>         0.3811
     41 H12         3.7505   -2.3627   -0.3108 H         1 <0>         0.3960
     42 H13         7.2158   -3.9232   -3.0038 H         1 <0>         0.1538
     43 H14         3.4091   -5.9127   -3.3010 H         1 <0>         0.1790
     44 H15         7.6992   -7.0740   -7.2084 H         1 <0>         0.1873
     45 H16         5.2410   -3.6541   -6.0260 H         1 <0>         0.1241
     46 H17         5.9603   -1.3859   -6.6480 H         1 <0>         0.1297
     47 H18         8.3495   -0.8908   -6.9627 H         1 <0>         0.1309
     48 H19         9.3308   -4.9348   -6.0254 H         1 <0>         0.1330
@<TRIPOS>BOND
     1    1    6 ar
     2    1    2 ar
     3    1   33 1
     4    2    3 ar
     5    2   34 1
     6    3    4 ar
     7    3   35 1
     8    4    5 ar
     9    4    7 1
    10    5    6 ar
    11    5   36 1
    12    6   37 1
    13    7    8 1
    14    7    9 1
    15    7   11 1
    16    9   10 1
    17    9   38 1
    18    9   39 1
    19   10   40 1
    20   11   12 am
    21   11   41 1
    22   12   13 2
    23   12   14 1
    24   14   18 1
    25   14   15 2
    26   15   16 1
    27   15   42 1
    28   16   17 2
    29   16   20 1
    30   17   18 1
    31   17   43 1
    32   18   19 1
    33   20   24 1
    34   20   21 2
    35   21   22 1
    36   21   26 1
    37   22   23 2
    38   22   44 1
    39   23   24 1
    40   24   25 1
    41   26   31 ar
    42   26   27 ar
    43   27   28 ar
    44   27   45 1
    45   28   29 ar
    46   28   46 1
    47   29   30 ar
    48   29   47 1
    49   30   31 ar
    50   30   32 1
    51   31   48 1
@<TRIPOS>MOLECULE
CHEMBL220112__1
   48    51     0     0     0
SMALL
USER_CHARGES

@<TRIPOS>ATOM
      1 C1         -0.0167    1.3781    0.0096 C.ar      1 <0>        -0.1158
      2 C2          1.1709    2.0855    0.0021 C.ar      1 <0>        -0.1185
      3 C3          2.3773    1.4107   -0.0130 C.ar      1 <0>        -0.1085
      4 C4          2.3960    0.0285   -0.0201 C.ar      1 <0>        -0.0927
      5 C5          1.2084   -0.6789   -0.0117 C.ar      1 <0>        -0.0916
      6 C6          0.0021   -0.0041    0.0020 C.ar      1 <0>        -0.1208
      7 C7          3.7112   -0.7071   -0.0376 C.3       1 <0>         0.1925
      8 H1          4.4960   -0.0399   -0.3940 H         1 <0>         0.1120
      9 C8          4.0489   -1.1818    1.3772 C.3       1 <0>         0.0678
     10 O1          2.9664   -1.9618    1.8890 O.3       1 <0>        -0.5667
     11 N1          3.6115   -1.8645   -0.9302 N.am      1 <0>        -0.7191
     12 C9          4.7211   -2.3705   -1.5040 C.2       1 <0>         0.5926
     13 O2          5.8057   -1.8660   -1.2806 O.2       1 <0>        -0.5261
     14 C10         4.6213   -3.5296   -2.3980 C.2       1 <0>        -0.0566
     15 C11         5.6616   -4.1430   -3.0379 C.2       1 <0>        -0.0674
     16 C12         5.1179   -5.2045   -3.7869 C.2       1 <0>        -0.1174
     17 C13         3.7678   -5.2025   -3.5788 C.2       1 <0>         0.0711
     18 N2          3.4640   -4.1946   -2.7351 N.pl3     1 <0>        -0.5325
     19 H2          2.5741   -3.9730   -2.4191 H         1 <0>         0.4196
     20 C14         5.8729   -6.1511   -4.6451 C.2       1 <0>         0.1761
     21 C15         5.5731   -7.5226   -4.8396 C.2       1 <0>        -0.2032
     22 C16         6.5049   -8.0278   -5.6966 C.2       1 <0>         0.0821
     23 N3          7.3482   -7.0283   -6.0256 N.pl3     1 <0>        -0.4697
     24 N4          6.9354   -5.8654   -5.3644 N.2       1 <0>        -0.2803
     25 H3          8.1100   -7.1019   -6.6216 H         1 <0>         0.4445
     26 C17         4.4507   -8.2716   -4.2228 C.ar      1 <0>         0.0153
     27 C18         4.2315   -8.1965   -2.8485 C.ar      1 <0>        -0.1002
     28 C19         3.1858   -8.8946   -2.2794 C.ar      1 <0>        -0.1046
     29 C20         2.3557   -9.6685   -3.0701 C.ar      1 <0>        -0.1157
     30 C21         2.5685   -9.7474   -4.4356 C.ar      1 <0>        -0.0319
     31 C22         3.6086   -9.0476   -5.0162 C.ar      1 <0>        -0.1070
     32 Cl1         1.5228  -10.7218   -5.4209 Cl        1 <0>        -0.0708
     33 H4         -0.9591    1.9053    0.0259 H         1 <0>         0.1227
     34 H5          1.1563    3.1654    0.0076 H         1 <0>         0.1245
     35 H6          3.3051    1.9634   -0.0196 H         1 <0>         0.1242
     36 H7          1.2231   -1.7588   -0.0176 H         1 <0>         0.1208
     37 H8         -0.9258   -0.5567    0.0082 H         1 <0>         0.1229
     38 H9          4.9535   -1.7892    1.3504 H         1 <0>         0.0577
     39 H10         4.2104   -0.3176    2.0215 H         1 <0>         0.0582
     40 H11         3.1119   -2.2967    2.7844 H         1 <0>         0.3806
     41 H12         2.7469   -2.2666   -1.1082 H         1 <0>         0.3965
     42 H13         6.7038   -3.8656   -2.9806 H         1 <0>         0.1530
     43 H14         3.0621   -5.8948   -4.0136 H         1 <0>         0.1757
     44 H15         6.5584   -9.0473   -6.0490 H         1 <0>         0.1812
     45 H16         4.8792   -7.5933   -2.2297 H         1 <0>         0.1296
     46 H17         3.0156   -8.8368   -1.2145 H         1 <0>         0.1317
     47 H18         1.5388  -10.2134   -2.6205 H         1 <0>         0.1317
     48 H19         3.7716   -9.1060   -6.0822 H         1 <0>         0.1325
@<TRIPOS>BOND
     1    1    6 ar
     2    1    2 ar
     3    1   33 1
     4    2    3 ar
     5    2   34 1
     6    3    4 ar
     7    3   35 1
     8    4    5 ar
     9    4    7 1
    10    5    6 ar
    11    5   36 1
    12    6   37 1
    13    7    8 1
    14    7    9 1
    15    7   11 1
    16    9   10 1
    17    9   38 1
    18    9   39 1
    19   10   40 1
    20   11   12 am
    21   11   41 1
    22   12   13 2
    23   12   14 1
    24   14   18 1
    25   14   15 2
    26   15   16 1
    27   15   42 1
    28   16   17 2
    29   16   20 1
    30   17   18 1
    31   17   43 1
    32   18   19 1
    33   20   24 2
    34   20   21 1
    35   21   26 1
    36   21   22 2
    37   22   44 1
    38   22   23 1
    39   23   24 1
    40   23   25 1
    41   26   31 ar
    42   26   27 ar
    43   27   28 ar
    44   27   45 1
    45   28   29 ar
    46   28   46 1
    47   29   30 ar
    48   29   47 1
    49   30   31 ar
    50   30   32 1
    51   31   48 1
@<TRIPOS>MOLECULE
CHEMBL565460
   57    60     0     0     0
SMALL
USER_CHARGES

@<TRIPOS>ATOM
      1 C1          1.9176    1.5151   -1.3735 C.3       1 <0>        -0.1171
      2 C2          1.6618    0.0417   -1.1873 C.ar      1 <0>        -0.0834
      3 C3          1.5441   -0.7842   -2.2898 C.ar      1 <0>        -0.1166
      4 C4          1.3095   -2.1355   -2.1190 C.ar      1 <0>        -0.1161
      5 C5          1.1930   -2.6615   -0.8457 C.ar      1 <0>        -0.0977
      6 C6          1.3117   -1.8360    0.2565 C.ar      1 <0>        -0.0881
      7 C7          1.5506   -0.4850    0.0857 C.ar      1 <0>        -0.1095
      8 C8          1.1843   -2.4092    1.6444 C.3       1 <0>         0.1929
      9 H1          1.6428   -1.7287    2.3620 H         1 <0>         0.1119
     10 C9         -0.2957   -2.5906    1.9874 C.3       1 <0>         0.0678
     11 O1         -0.9234   -3.3884    0.9816 O.3       1 <0>        -0.5667
     12 N1          1.8613   -3.7071    1.7007 N.am      1 <0>        -0.7187
     13 C10         2.3243   -4.1751    2.8768 C.2       1 <0>         0.5921
     14 O2          2.1800   -3.5196    3.8918 O.2       1 <0>        -0.5249
     15 C11         3.0026   -5.4753    2.9332 C.2       1 <0>        -0.0603
     16 C12         3.5114   -6.0649    4.0548 C.2       1 <0>        -0.0524
     17 C13         4.0710   -7.2963    3.6576 C.2       1 <0>        -0.1533
     18 C14         3.8803   -7.4112    2.2980 C.2       1 <0>         0.0703
     19 N2          3.2304   -6.3141    1.8653 N.pl3     1 <0>        -0.5290
     20 H2          2.9672   -6.1412    0.9478 H         1 <0>         0.4210
     21 C15         4.7395   -8.2830    4.5381 C.ar      1 <0>         0.2989
     22 C16         4.6165   -9.6540    4.2903 C.ar      1 <0>        -0.2407
     23 C17         5.2584  -10.5366    5.1385 C.ar      1 <0>         0.1903
     24 N3          5.9656  -10.0625    6.1529 N.ar      1 <0>        -0.5574
     25 C18         6.0654   -8.7583    6.3645 C.ar      1 <0>         0.5594
     26 N4          5.4712   -7.8780    5.5740 N.ar      1 <0>        -0.5537
     27 N5          6.8151   -8.3041    7.4372 N.pl3     1 <0>        -0.6424
     28 C19         7.5485   -9.2089    8.2106 C.ar      1 <0>         0.1665
     29 C20         8.2123  -10.2665    7.6022 C.ar      1 <0>        -0.1106
     30 C21         8.9362  -11.1582    8.3690 C.ar      1 <0>        -0.1014
     31 C22         9.0002  -10.9994    9.7413 C.ar      1 <0>        -0.1371
     32 C23         8.3400   -9.9479   10.3502 C.ar      1 <0>        -0.1001
     33 C24         7.6195   -9.0490    9.5886 C.ar      1 <0>        -0.1467
     34 C25         3.8026  -10.1571    3.1261 C.3       1 <0>        -0.1011
     35 H3          2.9921    1.6966   -1.4018 H         1 <0>         0.0718
     36 H4          1.4684    1.8464   -2.3097 H         1 <0>         0.0676
     37 H5          1.4775    2.0680   -0.5436 H         1 <0>         0.0674
     38 H6          1.6350   -0.3734   -3.2844 H         1 <0>         0.1224
     39 H7          1.2167   -2.7806   -2.9802 H         1 <0>         0.1231
     40 H8          1.0090   -3.7173   -0.7123 H         1 <0>         0.1202
     41 H9          1.6471    0.1594    0.9470 H         1 <0>         0.1236
     42 H10        -0.3865   -3.0866    2.9537 H         1 <0>         0.0575
     43 H11        -0.7804   -1.6154    2.0325 H         1 <0>         0.0584
     44 H12        -1.8653   -3.5448    1.1347 H         1 <0>         0.3808
     45 H13         1.9764   -4.2296    0.8916 H         1 <0>         0.3964
     46 H14         3.4896   -5.6633    5.0571 H         1 <0>         0.1548
     47 H15         4.1944   -8.2424    1.6841 H         1 <0>         0.1844
     48 H16         5.1838  -11.6017    4.9759 H         1 <0>         0.1691
     49 H17         6.8313   -7.3582    7.6517 H         1 <0>         0.4232
     50 H18         8.1622  -10.3915    6.5306 H         1 <0>         0.1263
     51 H19         9.4526  -11.9807    7.8965 H         1 <0>         0.1238
     52 H20         9.5666  -11.6984   10.3387 H         1 <0>         0.1221
     53 H21         8.3917   -9.8269   11.4222 H         1 <0>         0.1252
     54 H22         7.1079   -8.2254   10.0643 H         1 <0>         0.1238
     55 H23         4.4414  -10.2453    2.2473 H         1 <0>         0.0692
     56 H24         3.3839  -11.1334    3.3704 H         1 <0>         0.0695
     57 H25         2.9937   -9.4566    2.9184 H         1 <0>         0.0732
@<TRIPOS>BOND
     1    1    2 1
     2    1   35 1
     3    1   36 1
     4    1   37 1
     5    2    7 ar
     6    2    3 ar
     7    3    4 ar
     8    3   38 1
     9    4    5 ar
    10    4   39 1
    11    5    6 ar
    12    5   40 1
    13    6    7 ar
    14    6    8 1
    15    7   41 1
    16    8    9 1
    17    8   10 1
    18    8   12 1
    19   10   11 1
    20   10   42 1
    21   10   43 1
    22   11   44 1
    23   12   13 am
    24   12   45 1
    25   13   14 2
    26   13   15 1
    27   15   19 1
    28   15   16 2
    29   16   17 1
    30   16   46 1
    31   17   18 2
    32   17   21 1
    33   18   19 1
    34   18   47 1
    35   19   20 1
    36   21   26 ar
    37   21   22 ar
    38   22   23 ar
    39   22   34 1
    40   23   24 ar
    41   23   48 1
    42   24   25 ar
    43   25   26 ar
    44   25   27 1
    45   27   28 1
    46   27   49 1
    47   28   33 ar
    48   28   29 ar
    49   29   30 ar
    50   29   50 1
    51   30   31 ar
    52   30   51 1
    53   31   32 ar
    54   31   52 1
    55   32   33 ar
    56   32   53 1
    57   33   54 1
    58   34   55 1
    59   34   56 1
    60   34   57 1
@<TRIPOS>MOLECULE
CHEMBL583042
   54    57     0     0     0
SMALL
USER_CHARGES

@<TRIPOS>ATOM
      1 C1          0.2245    1.5009   -0.0088 C.3       1 <0>        -0.1024
      2 C2          0.1797   -0.0055   -0.0120 C.ar      1 <0>        -0.2351
      3 C3         -0.0442   -0.7041   -1.1839 C.ar      1 <0>         0.1907
      4 N1         -0.0778   -2.0274   -1.1532 N.ar      1 <0>        -0.5599
      5 C4          0.0998   -2.6883   -0.0182 C.ar      1 <0>         0.5586
      6 N2          0.3168   -2.0593    1.1262 N.ar      1 <0>        -0.5484
      7 C5          0.3693   -0.7294    1.1692 C.ar      1 <0>         0.3007
      8 C6          0.6187   -0.0273    2.4500 C.2       1 <0>        -0.1552
      9 C7          0.1779   -0.4333    3.7261 C.2       1 <0>        -0.0508
     10 C8          0.6269    0.4961    4.6199 C.2       1 <0>        -0.0603
     11 N3          1.3283    1.4565    3.9260 N.pl3     1 <0>        -0.5287
     12 H1          1.7561    2.2339    4.3179 H         1 <0>         0.4212
     13 C9          1.3297    1.1409    2.6170 C.2       1 <0>         0.0725
     14 C10         0.4005    0.4753    6.0697 C.2       1 <0>         0.5929
     15 O1         -0.2387   -0.4297    6.5728 O.2       1 <0>        -0.5224
     16 N4          0.9007    1.4585    6.8441 N.am      1 <0>        -0.7196
     17 C11         0.6747    1.4377    8.2914 C.3       1 <0>         0.1936
     18 H2          0.6791    0.4066    8.6450 H         1 <0>         0.1151
     19 C12        -0.6784    2.0789    8.6056 C.3       1 <0>         0.0671
     20 O2         -0.6446    3.4620    8.2481 O.3       1 <0>        -0.5679
     21 C13         1.7691    2.2101    8.9818 C.ar      1 <0>        -0.0800
     22 C14         2.2339    3.3908    8.4327 C.ar      1 <0>        -0.0878
     23 C15         3.2376    4.0999    9.0653 C.ar      1 <0>        -0.1063
     24 C16         3.7776    3.6287   10.2474 C.ar      1 <0>        -0.1060
     25 C17         3.3130    2.4475   10.7973 C.ar      1 <0>        -0.0330
     26 C18         2.3039    1.7412   10.1666 C.ar      1 <0>        -0.0995
     27 Cl1         3.9906    1.8551   12.2818 Cl        1 <0>        -0.0646
     28 N5          0.0566   -4.0726   -0.0296 N.pl3     1 <0>        -0.6343
     29 C19        -0.0458   -4.7598   -1.2451 C.ar      1 <0>         0.1751
     30 C20         0.5331   -4.2337   -2.3922 C.ar      1 <0>        -0.0790
     31 C21         0.4313   -4.9133   -3.5903 C.ar      1 <0>        -0.1244
     32 C22        -0.2479   -6.1187   -3.6487 C.ar      1 <0>         0.0911
     33 C23        -0.8262   -6.6460   -2.5066 C.ar      1 <0>        -0.1233
     34 C24        -0.7221   -5.9722   -1.3042 C.ar      1 <0>        -0.0461
     35 Cl2        -1.4417   -6.6366    0.1292 Cl        1 <0>        -0.0497
     36 F1         -0.3467   -6.7811   -4.8221 F         1 <0>        -0.1329
     37 H3          1.2465    1.8343   -0.1885 H         1 <0>         0.0707
     38 H4         -0.4266    1.8854   -0.7938 H         1 <0>         0.0708
     39 H5         -0.1141    1.8724    0.9584 H         1 <0>         0.0741
     40 H6         -0.1905   -0.1760   -2.1146 H         1 <0>         0.1720
     41 H7         -0.4050   -1.3135    3.9537 H         1 <0>         0.1555
     42 H8          1.8052    1.7087    1.8310 H         1 <0>         0.1848
     43 H9          1.4103    2.1799    6.4431 H         1 <0>         0.3965
     44 H10        -1.4599    1.5755    8.0364 H         1 <0>         0.0600
     45 H11        -0.8867    1.9840    9.6713 H         1 <0>         0.0601
     46 H12        -1.4713    3.9331    8.4202 H         1 <0>         0.3826
     47 H13         1.8129    3.7590    7.5088 H         1 <0>         0.1283
     48 H14         3.6003    5.0221    8.6359 H         1 <0>         0.1343
     49 H15         4.5624    4.1824   10.7413 H         1 <0>         0.1350
     50 H16         1.9377    0.8212   10.5978 H         1 <0>         0.1358
     51 H17         0.0974   -4.5661    0.8045 H         1 <0>         0.4273
     52 H18         1.0624   -3.2933   -2.3478 H         1 <0>         0.1555
     53 H19         0.8816   -4.5041   -4.4826 H         1 <0>         0.1456
     54 H20        -1.3555   -7.5862   -2.5544 H         1 <0>         0.1501
@<TRIPOS>BOND
     1    1    2 1
     2    1   37 1
     3    1   38 1
     4    1   39 1
     5    2    7 ar
     6    2    3 ar
     7    3    4 ar
     8    3   40 1
     9    4    5 ar
    10    5    6 ar
    11    5   28 1
    12    6    7 ar
    13    7    8 1
    14    8   13 2
    15    8    9 1
    16    9   10 2
    17    9   41 1
    18   10   11 1
    19   10   14 1
    20   11   12 1
    21   11   13 1
    22   13   42 1
    23   14   15 2
    24   14   16 am
    25   16   17 1
    26   16   43 1
    27   17   18 1
    28   17   19 1
    29   17   21 1
    30   19   20 1
    31   19   44 1
    32   19   45 1
    33   20   46 1
    34   21   26 ar
    35   21   22 ar
    36   22   23 ar
    37   22   47 1
    38   23   24 ar
    39   23   48 1
    40   24   25 ar
    41   24   49 1
    42   25   26 ar
    43   25   27 1
    44   26   50 1
    45   28   29 1
    46   28   51 1
    47   29   34 ar
    48   29   30 ar
    49   30   31 ar
    50   30   52 1
    51   31   32 ar
    52   31   53 1
    53   32   33 ar
    54   32   36 1
    55   33   34 ar
    56   33   54 1
    57   34   35 1
@<TRIPOS>MOLECULE
CHEMBL550658
   39    42     0     0     0
SMALL
USER_CHARGES

@<TRIPOS>ATOM
      1 C1          0.8303    1.1233   -1.3262 C.ar      1 <0>        -0.1394
      2 C2          1.9154    1.8290   -0.8258 C.ar      1 <0>        -0.0977
      3 C3          2.8145    1.2240    0.0248 C.ar      1 <0>        -0.1253
      4 C4          2.6348   -0.1074    0.3874 C.ar      1 <0>         0.0903
      5 C5          1.5340   -0.8157   -0.1224 C.ar      1 <0>        -0.0718
      6 C6          0.6362   -0.1855   -0.9819 C.ar      1 <0>        -0.0654
      7 C7          1.6296   -2.1731    0.4412 C.2       1 <0>        -0.1534
      8 C8          2.7404   -2.1910    1.2239 C.2       1 <0>         0.1081
      9 N1          3.3417   -0.9703    1.1973 N.pl3     1 <0>        -0.5807
     10 H1          4.1515   -0.7404    1.6793 H         1 <0>         0.4215
     11 C9          0.6995   -3.2955    0.2027 C.ar      1 <0>         0.3280
     12 C10         1.1892   -4.5745   -0.1353 C.ar      1 <0>        -0.2297
     13 C11         0.2671   -5.5974   -0.3490 C.ar      1 <0>         0.2178
     14 N2         -1.0242   -5.3366   -0.2287 N.ar      1 <0>        -0.5748
     15 C12        -1.4519   -4.1230    0.0905 C.ar      1 <0>         0.5751
     16 N3         -0.6163   -3.1197    0.3083 N.ar      1 <0>        -0.5597
     17 N4         -2.8125   -3.8997    0.2045 N.pl3     1 <0>        -0.8177
     18 C13         2.6449   -4.8236   -0.2603 C.ar      1 <0>         0.0135
     19 C14         3.4153   -4.0501   -1.1276 C.ar      1 <0>        -0.0968
     20 C15         4.7702   -4.2866   -1.2398 C.ar      1 <0>        -0.0673
     21 C16         5.3642   -5.2889   -0.4940 C.ar      1 <0>        -0.1845
     22 C17         4.6049   -6.0596    0.3681 C.ar      1 <0>        -0.0669
     23 C18         3.2502   -5.8285    0.4931 C.ar      1 <0>        -0.1145
     24 C19         6.8442   -5.5426   -0.6215 C.3       1 <0>         0.5072
     25 F1          7.5335   -4.7604    0.3114 F         1 <0>        -0.1776
     26 F2          7.1079   -6.8953   -0.3814 F         1 <0>        -0.1765
     27 F3          7.2652   -5.2074   -1.9129 F         1 <0>        -0.1767
     28 H2          0.1318    1.6127   -1.9888 H         1 <0>         0.1237
     29 H3          2.0565    2.8624   -1.1061 H         1 <0>         0.1270
     30 H4          3.6564    1.7811    0.4087 H         1 <0>         0.1223
     31 H5         -0.2104   -0.7291   -1.3745 H         1 <0>         0.1206
     32 H6          3.0927   -3.0451    1.7831 H         1 <0>         0.1731
     33 H7          0.6025   -6.5903   -0.6099 H         1 <0>         0.1710
     34 H8         -3.4376   -4.6255    0.0516 H         1 <0>         0.4163
     35 H9         -3.1414   -3.0174    0.4373 H         1 <0>         0.4160
     36 H10         2.9526   -3.2675   -1.7106 H         1 <0>         0.1341
     37 H11         5.3679   -3.6884   -1.9115 H         1 <0>         0.1358
     38 H12         5.0741   -6.8407    0.9479 H         1 <0>         0.1381
     39 H13         2.6592   -6.4279    1.1697 H         1 <0>         0.1369
@<TRIPOS>BOND
     1    1    6 ar
     2    1    2 ar
     3    1   28 1
     4    2    3 ar
     5    2   29 1
     6    3    4 ar
     7    3   30 1
     8    4    9 1
     9    4    5 ar
    10    5    6 ar
    11    5    7 1
    12    6   31 1
    13    7    8 2
    14    7   11 1
    15    8    9 1
    16    8   32 1
    17    9   10 1
    18   11   16 ar
    19   11   12 ar
    20   12   13 ar
    21   12   18 1
    22   13   14 ar
    23   13   33 1
    24   14   15 ar
    25   15   16 ar
    26   15   17 1
    27   17   34 1
    28   17   35 1
    29   18   23 ar
    30   18   19 ar
    31   19   20 ar
    32   19   36 1
    33   20   21 ar
    34   20   37 1
    35   21   22 ar
    36   21   24 1
    37   22   23 ar
    38   22   38 1
    39   23   39 1
    40   24   25 1
    41   24   26 1
    42   24   27 1
@<TRIPOS>MOLECULE
CHEMBL361708
   28    30     0     0     0
SMALL
USER_CHARGES

@<TRIPOS>ATOM
      1 C1         -0.0163    1.3518    0.0095 C.2       1 <0>        -0.1320
      2 C2          1.3148    1.7902   -0.0009 C.2       1 <0>        -0.0473
      3 C3          2.1177    0.6382   -0.0541 C.2       1 <0>        -0.0284
      4 N1          1.2938   -0.4402   -0.0184 N.pl3     1 <0>        -0.4947
      5 H1          1.5772   -1.3679   -0.0093 H         1 <0>         0.4228
      6 C4          0.0021   -0.0041    0.0020 C.2       1 <0>         0.0135
      7 Br1        -1.5265   -1.1172    0.0181 Br        1 <0>         0.0029
      8 C5          3.5766    0.7389   -0.1870 C.2       1 <0>         0.6051
      9 O1          4.1929    0.0169   -0.9490 O.2       1 <0>        -0.5408
     10 N2          4.2121    1.6686    0.5723 N.am      1 <0>        -0.7065
     11 C6          3.5429    2.2863    1.7070 C.3       1 <0>         0.1163
     12 C7          2.6757    3.4872    1.3174 C.3       1 <0>        -0.0871
     13 C8          1.8765    3.1423    0.0746 C.2       1 <0>        -0.1143
     14 C9          1.6898    4.0463   -0.9242 C.2       1 <0>         0.1008
     15 C10         2.1957    5.4237   -0.9853 C.2       1 <0>         0.4669
     16 O2          2.9467    6.0446   -0.0478 O.3       1 <0>        -0.6390
     17 N3          1.7827    5.9409   -2.1226 N.2       1 <0>        -0.6194
     18 C11         1.0592    5.0459   -2.8124 C.2       1 <0>         0.5785
     19 N4          0.9806    3.8605   -2.1141 N.pl3     1 <0>        -0.7302
     20 N5          0.5113    5.2654   -3.9838 N.2       1 <0>        -0.7896
     21 H2         -0.8955    1.9789    0.0252 H         1 <0>         0.1528
     22 H3          5.1227    1.9234    0.3559 H         1 <0>         0.4078
     23 H4          2.9112    1.5403    2.1892 H         1 <0>         0.0663
     24 H5          4.2974    2.6164    2.4210 H         1 <0>         0.0851
     25 H6          1.9946    3.7249    2.1345 H         1 <0>         0.0799
     26 H7          3.3144    4.3465    1.1128 H         1 <0>         0.1130
     27 H8          0.5205    3.0537   -2.3935 H         1 <0>         0.4017
     28 H9          0.0011    4.5649   -4.4195 H         1 <0>         0.3159
@<TRIPOS>BOND
     1    1    6 2
     2    1    2 1
     3    1   21 1
     4    2   13 1
     5    2    3 2
     6    3    4 1
     7    3    8 1
     8    4    5 1
     9    4    6 1
    10    6    7 1
    11    8    9 2
    12    8   10 am
    13   10   11 1
    14   10   22 1
    15   11   12 1
    16   11   23 1
    17   11   24 1
    18   12   13 1
    19   12   25 1
    20   12   26 1
    21   13   14 2
    22   14   19 1
    23   14   15 1
    24   15   16 1
    25   15   17 2
    26   17   18 1
    27   18   19 1
    28   18   20 2
    29   19   27 1
    30   20   28 1
@<TRIPOS>MOLECULE
CHEMBL361708__1
   28    30     0     0     0
SMALL
USER_CHARGES

@<TRIPOS>ATOM
      1 C1         -0.0163    1.3522    0.0095 C.2       1 <0>        -0.1304
      2 C2          1.3145    1.7899   -0.0009 C.2       1 <0>        -0.0459
      3 C3          2.1168    0.6384   -0.0541 C.2       1 <0>        -0.0300
      4 N1          1.2937   -0.4395   -0.0184 N.pl3     1 <0>        -0.4944
      5 H1          1.5775   -1.3670   -0.0089 H         1 <0>         0.4225
      6 C4          0.0021   -0.0041    0.0020 C.2       1 <0>         0.0140
      7 Br1        -1.5262   -1.1176    0.0181 Br        1 <0>         0.0029
      8 C5          3.5767    0.7391   -0.1874 C.2       1 <0>         0.6062
      9 O1          4.1928    0.0172   -0.9493 O.2       1 <0>        -0.5393
     10 N2          4.2125    1.6688    0.5718 N.am      1 <0>        -0.7083
     11 C6          3.5436    2.2865    1.7066 C.3       1 <0>         0.1168
     12 C7          2.6766    3.4877    1.3173 C.3       1 <0>        -0.0808
     13 C8          1.8770    3.1431    0.0747 C.2       1 <0>        -0.1250
     14 C9          1.6904    4.0451   -0.9215 C.2       1 <0>         0.0817
     15 C10         2.1965    5.4312   -0.9893 C.2       1 <0>         0.5130
     16 O2          2.8748    6.0047   -0.1528 O.2       1 <0>        -0.5579
     17 N3          1.7619    5.9328   -2.1536 N.2       1 <0>        -0.7162
     18 C11         1.0563    5.0350   -2.8068 C.2       1 <0>         0.5692
     19 N4          0.9819    3.8661   -2.1131 N.pl3     1 <0>        -0.6705
     20 N5          0.4771    5.2468   -4.0277 N.2       1 <0>        -0.8527
     21 H2         -0.8954    1.9794    0.0253 H         1 <0>         0.1535
     22 H3          5.1230    1.9236    0.3550 H         1 <0>         0.4071
     23 H4          2.9118    1.5406    2.1889 H         1 <0>         0.0681
     24 H5          4.2983    2.6165    2.4205 H         1 <0>         0.0845
     25 H6          1.9957    3.7255    2.1345 H         1 <0>         0.0803
     26 H7          3.3154    4.3469    1.1126 H         1 <0>         0.1016
     27 H8          0.5214    3.0596   -2.3928 H         1 <0>         0.4083
     28 H9          0.5746    6.1055   -4.4684 H         1 <0>         0.3216
@<TRIPOS>BOND
     1    1    6 2
     2    1    2 1
     3    1   21 1
     4    2   13 1
     5    2    3 2
     6    3    4 1
     7    3    8 1
     8    4    5 1
     9    4    6 1
    10    6    7 1
    11    8    9 2
    12    8   10 am
    13   10   11 1
    14   10   22 1
    15   11   12 1
    16   11   23 1
    17   11   24 1
    18   12   13 1
    19   12   25 1
    20   12   26 1
    21   13   14 2
    22   14   19 1
    23   14   15 1
    24   15   16 2
    25   15   17 1
    26   17   18 2
    27   18   19 1
    28   18   20 1
    29   19   27 1
    30   20   28 1
@<TRIPOS>MOLECULE
CHEMBL361708__2
   29    31     0     0     0
SMALL
USER_CHARGES

@<TRIPOS>ATOM
      1 C1         -0.0163    1.3522    0.0095 C.2       1 <0>        -0.1233
      2 C2          1.3145    1.7899   -0.0009 C.2       1 <0>        -0.1048
      3 C3          2.1168    0.6384   -0.0541 C.2       1 <0>        -0.0013
      4 N1          1.2937   -0.4395   -0.0184 N.pl3     1 <0>        -0.4850
      5 H1          1.5775   -1.3670   -0.0089 H         1 <0>         0.4308
      6 C4          0.0021   -0.0041    0.0020 C.2       1 <0>         0.0189
      7 Br1        -1.5262   -1.1176    0.0181 Br        1 <0>         0.0227
      8 C5          3.5767    0.7391   -0.1874 C.2       1 <0>         0.5973
      9 O1          4.1928    0.0172   -0.9493 O.2       1 <0>        -0.5214
     10 N2          4.2125    1.6688    0.5718 N.am      1 <0>        -0.7121
     11 C6          3.5436    2.2865    1.7066 C.3       1 <0>         0.1126
     12 C7          2.6766    3.4877    1.3173 C.3       1 <0>        -0.1046
     13 C8          1.8770    3.1431    0.0747 C.2       1 <0>         0.0171
     14 C9          1.6904    4.0451   -0.9215 C.2       1 <0>        -0.0013
     15 C10         2.1965    5.4312   -0.9893 C.2       1 <0>         0.5402
     16 O2          2.8748    6.0047   -0.1528 O.2       1 <0>        -0.4687
     17 N3          1.7619    5.9328   -2.1536 N.2       1 <0>        -0.6424
     18 C11         1.0563    5.0350   -2.8068 C.2       1 <0>         0.6571
     19 N4          0.9819    3.8661   -2.1131 N.pl3     1 <0>        -0.6656
     20 N5          0.4771    5.2468   -4.0277 N.pl3     1 <0>        -0.8040
     21 H2         -0.8954    1.9794    0.0253 H         1 <0>         0.1589
     22 H3          5.1230    1.9236    0.3550 H         1 <0>         0.4127
     23 H4          2.9118    1.5406    2.1889 H         1 <0>         0.0771
     24 H5          4.2983    2.6165    2.4205 H         1 <0>         0.0983
     25 H6          1.9957    3.7255    2.1345 H         1 <0>         0.1057
     26 H7          3.3154    4.3469    1.1126 H         1 <0>         0.1089
     27 H8          0.5214    3.0596   -2.3928 H         1 <0>         0.4258
     28 H9          0.5746    6.1055   -4.4684 H         1 <0>         0.4334
     29 H10        -0.0311    4.5384   -4.4529 H         1 <0>         0.4171
@<TRIPOS>BOND
     1    1    6 2
     2    1    2 1
     3    1   21 1
     4    2   13 1
     5    2    3 2
     6    3    4 1
     7    3    8 1
     8    4    5 1
     9    4    6 1
    10    6    7 1
    11    8    9 2
    12    8   10 am
    13   10   11 1
    14   10   22 1
    15   11   12 1
    16   11   23 1
    17   11   24 1
    18   12   13 1
    19   12   25 1
    20   12   26 1
    21   13   14 2
    22   14   19 1
    23   14   15 1
    24   15   16 2
    25   15   17 1
    26   17   18 2
    27   18   19 1
    28   18   20 1
    29   19   27 1
    30   20   28 1
    31   20   29 1
@<TRIPOS>MOLECULE
CHEMBL568937
   61    65     0     0     0
SMALL
USER_CHARGES

@<TRIPOS>ATOM
      1 C1          0.2024    1.5015   -0.0074 C.3       1 <0>        -0.1009
      2 C2          0.1636   -0.0050   -0.0110 C.ar      1 <0>        -0.2405
      3 C3         -0.0596   -0.7042   -1.1827 C.ar      1 <0>         0.1895
      4 N1         -0.0879   -2.0276   -1.1523 N.ar      1 <0>        -0.5560
      5 C4          0.0943   -2.6881   -0.0178 C.ar      1 <0>         0.5586
      6 N2          0.3105   -2.0586    1.1264 N.ar      1 <0>        -0.5534
      7 C5          0.3583   -0.7285    1.1696 C.ar      1 <0>         0.2984
      8 C6          0.6071   -0.0258    2.4502 C.2       1 <0>        -0.1530
      9 C7          0.1703   -0.4339    3.7269 C.2       1 <0>        -0.0513
     10 C8          0.6172    0.4970    4.6202 C.2       1 <0>        -0.0612
     11 N3          1.3135    1.4604    3.9254 N.pl3     1 <0>        -0.5291
     12 H1          1.7394    2.2391    4.3167 H         1 <0>         0.4208
     13 C9          1.3138    1.1452    2.6163 C.2       1 <0>         0.0712
     14 C10         0.3933    0.4750    6.0704 C.2       1 <0>         0.5933
     15 O1         -0.2417   -0.4325    6.5743 O.2       1 <0>        -0.5230
     16 N4          0.8910    1.4599    6.8441 N.am      1 <0>        -0.7198
     17 C11         0.6675    1.4380    8.2918 C.3       1 <0>         0.1936
     18 H2          0.6763    0.4069    8.6452 H         1 <0>         0.1150
     19 C12        -0.6876    2.0740    8.6084 C.3       1 <0>         0.0671
     20 O2         -0.6596    3.4573    8.2511 O.3       1 <0>        -0.5678
     21 C13         1.7600    2.2145    8.9806 C.ar      1 <0>        -0.0799
     22 C14         2.2195    3.3970    8.4310 C.ar      1 <0>        -0.0878
     23 C15         3.2215    4.1098    9.0621 C.ar      1 <0>        -0.1063
     24 C16         3.7652    3.6404   10.2432 C.ar      1 <0>        -0.1060
     25 C17         3.3059    2.4573   10.7936 C.ar      1 <0>        -0.0331
     26 C18         2.2985    1.7473   10.1645 C.ar      1 <0>        -0.0994
     27 Cl1         3.9882    1.8672   12.2769 Cl        1 <0>        -0.0648
     28 N5          0.0571   -4.0729   -0.0296 N.pl3     1 <0>        -0.6373
     29 C19        -0.0448   -4.7591   -1.2435 C.ar      1 <0>         0.1827
     30 C20         0.5347   -4.2313   -2.3891 C.ar      1 <0>        -0.1179
     31 C21         0.4328   -4.9111   -3.5866 C.ar      1 <0>        -0.0989
     32 C22        -0.2449   -6.1142   -3.6431 C.ar      1 <0>        -0.1277
     33 C23        -0.8250   -6.6454   -2.5029 C.ar      1 <0>        -0.0757
     34 C24        -0.7218   -5.9730   -1.3008 C.ar      1 <0>        -0.1316
     35 C25        -1.4268   -6.7555   -0.2137 C.3       1 <0>        -0.0791
     36 C26        -2.3353   -7.7552   -0.9604 C.3       1 <0>        -0.1190
     37 C27        -1.6087   -7.9258   -2.3074 C.3       1 <0>        -0.0821
     38 H3          1.2228    1.8391   -0.1890 H         1 <0>         0.0691
     39 H4         -0.4516    1.8836   -0.7912 H         1 <0>         0.0695
     40 H5         -0.1359    1.8714    0.9605 H         1 <0>         0.0731
     41 H6         -0.2097   -0.1764   -2.1130 H         1 <0>         0.1695
     42 H7         -0.4087   -1.3165    3.9554 H         1 <0>         0.1550
     43 H8          1.7861    1.7148    1.8296 H         1 <0>         0.1845
     44 H9          1.3972    2.1834    6.4425 H         1 <0>         0.3965
     45 H10        -1.4681    1.5678    8.0404 H         1 <0>         0.0600
     46 H11        -0.8938    1.9782    9.6744 H         1 <0>         0.0600
     47 H12        -1.4879    3.9252    8.4247 H         1 <0>         0.3825
     48 H13         1.7955    3.7638    7.5079 H         1 <0>         0.1283
     49 H14         3.5800    5.0334    8.6323 H         1 <0>         0.1343
     50 H15         4.5486    4.1970   10.7359 H         1 <0>         0.1349
     51 H16         1.9365    0.8259   10.5960 H         1 <0>         0.1358
     52 H17         0.1017   -4.5664    0.8043 H         1 <0>         0.4223
     53 H18         1.0639   -3.2909   -2.3440 H         1 <0>         0.1365
     54 H19         0.8824   -4.5024   -4.4795 H         1 <0>         0.1258
     55 H20        -0.3229   -6.6430   -4.5815 H         1 <0>         0.1196
     56 H21        -0.7008   -7.2893    0.3995 H         1 <0>         0.0779
     57 H22        -2.0270   -6.0877    0.4044 H         1 <0>         0.0714
     58 H23        -2.3936   -8.7018   -0.4231 H         1 <0>         0.0778
     59 H24        -3.3288   -7.3347   -1.1156 H         1 <0>         0.0716
     60 H25        -2.3244   -8.0588   -3.1187 H         1 <0>         0.0767
     61 H26        -0.9324   -8.7789   -2.2550 H         1 <0>         0.0800
@<TRIPOS>BOND
     1    1    2 1
     2    1   38 1
     3    1   39 1
     4    1   40 1
     5    2    7 ar
     6    2    3 ar
     7    3    4 ar
     8    3   41 1
     9    4    5 ar
    10    5    6 ar
    11    5   28 1
    12    6    7 ar
    13    7    8 1
    14    8   13 2
    15    8    9 1
    16    9   10 2
    17    9   42 1
    18   10   11 1
    19   10   14 1
    20   11   12 1
    21   11   13 1
    22   13   43 1
    23   14   15 2
    24   14   16 am
    25   16   17 1
    26   16   44 1
    27   17   18 1
    28   17   19 1
    29   17   21 1
    30   19   20 1
    31   19   45 1
    32   19   46 1
    33   20   47 1
    34   21   26 ar
    35   21   22 ar
    36   22   23 ar
    37   22   48 1
    38   23   24 ar
    39   23   49 1
    40   24   25 ar
    41   24   50 1
    42   25   26 ar
    43   25   27 1
    44   26   51 1
    45   28   29 1
    46   28   52 1
    47   29   34 ar
    48   29   30 ar
    49   30   31 ar
    50   30   53 1
    51   31   32 ar
    52   31   54 1
    53   32   33 ar
    54   32   55 1
    55   33   37 1
    56   33   34 ar
    57   34   35 1
    58   35   36 1
    59   35   56 1
    60   35   57 1
    61   36   37 1
    62   36   58 1
    63   36   59 1
    64   37   60 1
    65   37   61 1
@<TRIPOS>MOLECULE
CHEMBL582829
   57    60     0     0     0
SMALL
USER_CHARGES

@<TRIPOS>ATOM
      1 C1         -0.0175    1.5028    0.0103 C.3       1 <0>        -0.1023
      2 C2          0.0027   -0.0041    0.0020 C.ar      1 <0>        -0.2358
      3 C3          0.0253   -0.7047   -1.1898 C.ar      1 <0>         0.1883
      4 N1          0.0425   -2.0284   -1.1629 N.ar      1 <0>        -0.5553
      5 C4          0.0385   -2.6878   -0.0133 C.ar      1 <0>         0.5569
      6 N2          0.0167   -2.0568    1.1501 N.ar      1 <0>        -0.5504
      7 C5          0.0048   -0.7261    1.1994 C.ar      1 <0>         0.3000
      8 C6         -0.0127   -0.0216    2.5028 C.2       1 <0>        -0.1549
      9 C7         -0.6606   -0.4530    3.6782 C.2       1 <0>        -0.0511
     10 C8         -0.4219    0.4897    4.6367 C.2       1 <0>        -0.0605
     11 N3          0.3524    1.4828    4.0799 N.pl3     1 <0>        -0.5287
     12 H1          0.6681    2.2755    4.5413 H         1 <0>         0.4212
     13 C9          0.6061    1.1744    2.7940 C.2       1 <0>         0.0723
     14 C10        -0.9069    0.4510    6.0212 C.2       1 <0>         0.5930
     15 O1         -1.5875   -0.4832    6.4017 O.2       1 <0>        -0.5226
     16 N4         -0.5985    1.4503    6.8714 N.am      1 <0>        -0.7196
     17 C11        -1.0827    1.4117    8.2536 C.3       1 <0>         0.1936
     18 H2         -1.0984    0.3798    8.6044 H         1 <0>         0.1151
     19 C12        -2.4967    1.9929    8.3151 C.3       1 <0>         0.0671
     20 O2         -2.4579    3.3782    7.9666 O.3       1 <0>        -0.5678
     21 C13        -0.1662    2.2263    9.1298 C.ar      1 <0>        -0.0800
     22 C14         0.3395    3.4288    8.6717 C.ar      1 <0>        -0.0879
     23 C15         1.1801    4.1764    9.4747 C.ar      1 <0>        -0.1063
     24 C16         1.5160    3.7220   10.7363 C.ar      1 <0>        -0.1060
     25 C17         1.0103    2.5190   11.1952 C.ar      1 <0>        -0.0331
     26 C18         0.1640    1.7739   10.3931 C.ar      1 <0>        -0.0995
     27 Cl1         1.4317    1.9477   12.7794 Cl        1 <0>        -0.0646
     28 N5          0.0571   -4.0729   -0.0296 N.pl3     1 <0>        -0.6322
     29 C19        -0.0448   -4.7591   -1.2434 C.ar      1 <0>         0.1978
     30 C20        -0.6643   -4.1587   -2.3325 C.ar      1 <0>        -0.1355
     31 C21        -0.7640   -4.8381   -3.5306 C.ar      1 <0>        -0.0739
     32 C22        -0.2480   -6.1155   -3.6484 C.ar      1 <0>        -0.1738
     33 C23         0.3703   -6.7179   -2.5654 C.ar      1 <0>         0.1189
     34 C24         0.4780   -6.0396   -1.3644 C.ar      1 <0>        -0.1588
     35 C25         1.1567   -6.6919   -0.1875 C.3       1 <0>        -0.1146
     36 F1          0.8735   -7.9661   -2.6834 F         1 <0>        -0.1362
     37 H3          1.0052    1.8798    0.0187 H         1 <0>         0.0703
     38 H4         -0.5306    1.8642   -0.8809 H         1 <0>         0.0708
     39 H5         -0.5416    1.8543    0.8990 H         1 <0>         0.0738
     40 H6          0.0284   -0.1779   -2.1326 H         1 <0>         0.1718
     41 H7         -1.2373   -1.3582    3.7978 H         1 <0>         0.1554
     42 H8          1.1927    1.7658    2.1066 H         1 <0>         0.1847
     43 H9         -0.0560    2.1950    6.5682 H         1 <0>         0.3965
     44 H10        -3.1393    1.4598    7.6144 H         1 <0>         0.0600
     45 H11        -2.8909    1.8832    9.3253 H         1 <0>         0.0601
     46 H12        -3.3216    3.8126    7.9845 H         1 <0>         0.3826
     47 H13         0.0779    3.7839    7.6858 H         1 <0>         0.1283
     48 H14         1.5748    5.1157    9.1163 H         1 <0>         0.1343
     49 H15         2.1734    4.3060   11.3634 H         1 <0>         0.1350
     50 H16        -0.2347    0.8367   10.7525 H         1 <0>         0.1359
     51 H17         0.1407   -4.5666    0.8011 H         1 <0>         0.4252
     52 H18        -1.0680   -3.1611   -2.2419 H         1 <0>         0.1555
     53 H19        -1.2459   -4.3711   -4.3768 H         1 <0>         0.1349
     54 H20        -0.3277   -6.6447   -4.5865 H         1 <0>         0.1346
     55 H21         0.4204   -7.2449    0.3958 H         1 <0>         0.0745
     56 H22         1.9255   -7.3768   -0.5452 H         1 <0>         0.0752
     57 H23         1.6149   -5.9259    0.4381 H         1 <0>         0.0675
@<TRIPOS>BOND
     1    1    2 1
     2    1   37 1
     3    1   38 1
     4    1   39 1
     5    2    7 ar
     6    2    3 ar
     7    3    4 ar
     8    3   40 1
     9    4    5 ar
    10    5    6 ar
    11    5   28 1
    12    6    7 ar
    13    7    8 1
    14    8   13 2
    15    8    9 1
    16    9   10 2
    17    9   41 1
    18   10   11 1
    19   10   14 1
    20   11   12 1
    21   11   13 1
    22   13   42 1
    23   14   15 2
    24   14   16 am
    25   16   17 1
    26   16   43 1
    27   17   18 1
    28   17   19 1
    29   17   21 1
    30   19   20 1
    31   19   44 1
    32   19   45 1
    33   20   46 1
    34   21   26 ar
    35   21   22 ar
    36   22   23 ar
    37   22   47 1
    38   23   24 ar
    39   23   48 1
    40   24   25 ar
    41   24   49 1
    42   25   26 ar
    43   25   27 1
    44   26   50 1
    45   28   29 1
    46   28   51 1
    47   29   34 ar
    48   29   30 ar
    49   30   31 ar
    50   30   52 1
    51   31   32 ar
    52   31   53 1
    53   32   33 ar
    54   32   54 1
    55   33   34 ar
    56   33   36 1
    57   34   35 1
    58   35   55 1
    59   35   56 1
    60   35   57 1
@<TRIPOS>MOLECULE
CHEMBL571030
   57    60     0     0     0
SMALL
USER_CHARGES

@<TRIPOS>ATOM
      1 C1          0.1789    1.5020   -0.0058 C.3       1 <0>        -0.1025
      2 C2          0.1464   -0.0046   -0.0098 C.ar      1 <0>        -0.2333
      3 C3         -0.0761   -0.7043   -1.1813 C.ar      1 <0>         0.1895
      4 N1         -0.0986   -2.0279   -1.1513 N.ar      1 <0>        -0.5561
      5 C4          0.0885   -2.6879   -0.0174 C.ar      1 <0>         0.5590
      6 N2          0.3041   -2.0579    1.1266 N.ar      1 <0>        -0.5472
      7 C5          0.3464   -0.7276    1.1702 C.ar      1 <0>         0.3001
      8 C6          0.5947   -0.0243    2.4506 C.2       1 <0>        -0.1556
      9 C7          0.1619   -0.4347    3.7280 C.2       1 <0>        -0.0518
     10 C8          0.6066    0.4978    4.6207 C.2       1 <0>        -0.0594
     11 N3          1.2975    1.4643    3.9249 N.pl3     1 <0>        -0.5284
     12 H1          1.7208    2.2447    4.3158 H         1 <0>         0.4214
     13 C9          1.2966    1.1496    2.6157 C.2       1 <0>         0.0718
     14 C10         0.3855    0.4743    6.0714 C.2       1 <0>         0.5918
     15 O1         -0.2447   -0.4360    6.5761 O.2       1 <0>        -0.5237
     16 N4          0.8805    1.4611    6.8445 N.am      1 <0>        -0.7187
     17 C11         0.6598    1.4377    8.2926 C.3       1 <0>         0.1924
     18 H2          0.6736    0.4065    8.6456 H         1 <0>         0.1123
     19 C12        -0.6974    2.0679    8.6119 C.3       1 <0>         0.0676
     20 O2         -0.6759    3.4514    8.2550 O.3       1 <0>        -0.5671
     21 C13         1.7503    2.2186    8.9796 C.ar      1 <0>        -0.0930
     22 C14         2.2037    3.4030    8.4297 C.ar      1 <0>        -0.0918
     23 C15         3.2040    4.1193    9.0599 C.ar      1 <0>        -0.1210
     24 C16         3.7506    3.6514   10.2402 C.ar      1 <0>        -0.1155
     25 C17         3.2966    2.4674   10.7906 C.ar      1 <0>        -0.1183
     26 C18         2.2933    1.7533   10.1626 C.ar      1 <0>        -0.1082
     27 N5          0.0571   -4.0729   -0.0296 N.pl3     1 <0>        -0.6429
     28 C19        -0.0448   -4.7591   -1.2435 C.ar      1 <0>         0.2252
     29 C20         0.5343   -4.2329   -2.3913 C.ar      1 <0>        -0.1211
     30 C21         0.4319   -4.9132   -3.5886 C.ar      1 <0>        -0.0648
     31 C22        -0.2464   -6.1172   -3.6458 C.ar      1 <0>        -0.1423
     32 C23        -0.8239   -6.6437   -2.5052 C.ar      1 <0>        -0.0508
     33 C24        -0.7202   -5.9711   -1.3032 C.ar      1 <0>        -0.2219
     34 C25        -1.3446   -6.5488   -0.0592 C.3       1 <0>         0.5089
     35 F1         -1.9629   -7.7649   -0.3693 F         1 <0>        -0.1735
     36 F2         -0.3531   -6.7621    0.9044 F         1 <0>        -0.1794
     37 F3         -2.2976   -5.6557    0.4421 F         1 <0>        -0.1737
     38 H3          1.1975    1.8440   -0.1891 H         1 <0>         0.0709
     39 H4         -0.4782    1.8817   -0.7882 H         1 <0>         0.0710
     40 H5         -0.1592    1.8702    0.9629 H         1 <0>         0.0745
     41 H6         -0.2301   -0.1769   -2.1111 H         1 <0>         0.1724
     42 H7         -0.4129   -1.3199    3.9572 H         1 <0>         0.1555
     43 H8          1.7651    1.7215    1.8283 H         1 <0>         0.1847
     44 H9          1.3828    2.1868    6.4421 H         1 <0>         0.3962
     45 H10        -1.4768    1.5586    8.0452 H         1 <0>         0.0577
     46 H11        -0.9012    1.9708    9.6782 H         1 <0>         0.0587
     47 H12        -1.5058    3.9158    8.4304 H         1 <0>         0.3810
     48 H13         1.7767    3.7686    7.5076 H         1 <0>         0.1207
     49 H14         3.5588    5.0443    8.6299 H         1 <0>         0.1229
     50 H15         4.5327    4.2106   10.7322 H         1 <0>         0.1229
     51 H16         3.7239    2.1016   11.7126 H         1 <0>         0.1248
     52 H17         1.9359    0.8302   10.5946 H         1 <0>         0.1243
     53 H18         0.1058   -4.5665    0.8040 H         1 <0>         0.4252
     54 H19         1.0638   -3.2926   -2.3474 H         1 <0>         0.1465
     55 H20         0.8816   -4.5045   -4.4814 H         1 <0>         0.1352
     56 H21        -0.3254   -6.6471   -4.5835 H         1 <0>         0.1355
     57 H22        -1.3531   -7.5839   -2.5533 H         1 <0>         0.1413
@<TRIPOS>BOND
     1    1    2 1
     2    1   38 1
     3    1   39 1
     4    1   40 1
     5    2    7 ar
     6    2    3 ar
     7    3    4 ar
     8    3   41 1
     9    4    5 ar
    10    5    6 ar
    11    5   27 1
    12    6    7 ar
    13    7    8 1
    14    8   13 2
    15    8    9 1
    16    9   10 2
    17    9   42 1
    18   10   11 1
    19   10   14 1
    20   11   12 1
    21   11   13 1
    22   13   43 1
    23   14   15 2
    24   14   16 am
    25   16   17 1
    26   16   44 1
    27   17   18 1
    28   17   19 1
    29   17   21 1
    30   19   20 1
    31   19   45 1
    32   19   46 1
    33   20   47 1
    34   21   26 ar
    35   21   22 ar
    36   22   23 ar
    37   22   48 1
    38   23   24 ar
    39   23   49 1
    40   24   25 ar
    41   24   50 1
    42   25   26 ar
    43   25   51 1
    44   26   52 1
    45   27   28 1
    46   27   53 1
    47   28   33 ar
    48   28   29 ar
    49   29   30 ar
    50   29   54 1
    51   30   31 ar
    52   30   55 1
    53   31   32 ar
    54   31   56 1
    55   32   33 ar
    56   32   57 1
    57   33   34 1
    58   34   35 1
    59   34   36 1
    60   34   37 1
@<TRIPOS>MOLECULE
CHEMBL199395
   45    49     0     0     0
SMALL
USER_CHARGES

@<TRIPOS>ATOM
      1 C1          0.3959   -4.4012   -0.4698 C.2       1 <0>        -0.1550
      2 C2         -0.5860   -3.6406   -0.0533 C.2       1 <0>        -0.1868
      3 C3         -0.5429   -2.1540   -0.2966 C.3       1 <0>         0.1761
      4 N1         -1.7598   -1.7385   -0.9985 N.pl3     1 <0>        -0.3775
      5 C4         -1.9133   -1.6944   -2.3578 C.ar      1 <0>         0.2688
      6 C5         -3.2303   -1.2423   -2.5991 C.ar      1 <0>        -0.1868
      7 C6         -3.6542   -1.1041   -3.9220 C.ar      1 <0>        -0.0238
      8 C7         -2.7397   -1.4249   -4.9256 C.ar      1 <0>         0.1009
      9 N2         -1.5173   -1.8439   -4.6014 N.ar      1 <0>        -0.1588
     10 N3         -1.1234   -1.9727   -3.3861 N.ar      1 <0>        -0.2389
     11 C8         -3.1270   -1.3003   -6.3477 C.2       1 <0>        -0.1969
     12 C9         -3.7651   -0.2056   -6.9436 C.2       1 <0>         0.1308
     13 C10        -4.2117    1.0274   -6.4406 C.2       1 <0>        -0.1226
     14 C11        -4.8118    1.9129   -7.2844 C.2       1 <0>        -0.0688
     15 C12        -4.9727    1.5782   -8.6381 C.2       1 <0>        -0.1628
     16 C13        -4.5371    0.3882   -9.1041 C.2       1 <0>         0.1190
     17 N4         -3.9341   -0.5084   -8.2697 N.pl3     1 <0>        -0.2669
     18 N5         -3.4026   -1.7848   -8.4916 N.2       1 <0>        -0.3040
     19 C14        -2.9181   -2.2576   -7.3586 C.2       1 <0>         0.1855
     20 C15        -2.2659   -3.5774   -7.1797 C.ar      1 <0>        -0.0153
     21 C16        -2.5537   -4.3536   -6.0584 C.ar      1 <0>        -0.0797
     22 C17        -1.9438   -5.5811   -5.8971 C.ar      1 <0>        -0.1179
     23 C18        -1.0483   -6.0413   -6.8456 C.ar      1 <0>        -0.1049
     24 C19        -0.7589   -5.2752   -7.9604 C.ar      1 <0>        -0.1199
     25 C20        -1.3672   -4.0488   -8.1350 C.ar      1 <0>        -0.0842
     26 C21        -3.8399   -1.0239   -1.2894 C.2       1 <0>         0.3663
     27 N6         -2.9482   -1.3308   -0.3842 N.2       1 <0>        -0.2898
     28 N7         -5.1407   -0.5743   -1.0484 N.pl3     1 <0>        -0.8272
     29 H1          0.3650   -5.4666   -0.2955 H         1 <0>         0.1038
     30 H2          1.2342   -3.9635   -0.9914 H         1 <0>         0.1038
     31 H3         -1.4264   -4.0789    0.4643 H         1 <0>         0.1134
     32 H4         -0.4774   -1.6314    0.6577 H         1 <0>         0.1036
     33 H5          0.3284   -1.9105   -0.9047 H         1 <0>         0.1019
     34 H6         -4.6510   -0.7626   -4.1592 H         1 <0>         0.1486
     35 H7         -4.0812    1.2706   -5.3965 H         1 <0>         0.1456
     36 H8         -5.1614    2.8654   -6.9143 H         1 <0>         0.1455
     37 H9         -5.4480    2.2767   -9.3109 H         1 <0>         0.1595
     38 H10        -4.6674    0.1430  -10.1477 H         1 <0>         0.1733
     39 H11        -3.2525   -3.9951   -5.3171 H         1 <0>         0.1137
     40 H12        -2.1658   -6.1832   -5.0285 H         1 <0>         0.1234
     41 H13        -0.5731   -7.0023   -6.7151 H         1 <0>         0.1247
     42 H14        -0.0589   -5.6395   -8.6978 H         1 <0>         0.1272
     43 H15        -1.1438   -3.4534   -9.0080 H         1 <0>         0.1260
     44 H16        -5.7309   -0.3759   -1.7922 H         1 <0>         0.4142
     45 H17        -5.4536   -0.4607   -0.1373 H         1 <0>         0.4128
@<TRIPOS>BOND
     1    1    2 2
     2    1   29 1
     3    1   30 1
     4    2    3 1
     5    2   31 1
     6    3    4 1
     7    3   32 1
     8    3   33 1
     9    4   27 1
    10    4    5 1
    11    5   10 ar
    12    5    6 ar
    13    6    7 ar
    14    6   26 1
    15    7    8 ar
    16    7   34 1
    17    8    9 ar
    18    8   11 1
    19    9   10 ar
    20   11   19 1
    21   11   12 2
    22   12   17 1
    23   12   13 1
    24   13   14 2
    25   13   35 1
    26   14   15 1
    27   14   36 1
    28   15   16 2
    29   15   37 1
    30   16   17 1
    31   16   38 1
    32   17   18 1
    33   18   19 2
    34   19   20 1
    35   20   25 ar
    36   20   21 ar
    37   21   22 ar
    38   21   39 1
    39   22   23 ar
    40   22   40 1
    41   23   24 ar
    42   23   41 1
    43   24   25 ar
    44   24   42 1
    45   25   43 1
    46   26   27 2
    47   26   28 1
    48   28   44 1
    49   28   45 1
@<TRIPOS>MOLECULE
CHEMBL571484
   57    61     0     0     0
SMALL
USER_CHARGES

@<TRIPOS>ATOM
      1 C1          0.2687    1.4994   -0.0116 C.3       1 <0>        -0.1015
      2 C2          0.2120   -0.0066   -0.0141 C.ar      1 <0>        -0.2386
      3 C3         -0.0127   -0.7042   -1.1865 C.ar      1 <0>         0.1904
      4 N1         -0.0569   -2.0271   -1.1551 N.ar      1 <0>        -0.5583
      5 C4          0.1107   -2.6887   -0.0189 C.ar      1 <0>         0.5598
      6 N2          0.3281   -2.0606    1.1260 N.ar      1 <0>        -0.5509
      7 C5          0.3910   -0.7311    1.1683 C.ar      1 <0>         0.2998
      8 C6          0.6407   -0.0302    2.4497 C.2       1 <0>        -0.1541
      9 C7          0.1915   -0.4318    3.7242 C.2       1 <0>        -0.0511
     10 C8          0.6435    0.4950    4.6192 C.2       1 <0>        -0.0609
     11 N3          1.3550    1.4496    3.9275 N.pl3     1 <0>        -0.5290
     12 H1          1.7873    2.2239    4.3205 H         1 <0>         0.4210
     13 C9          1.3603    1.1324    2.6189 C.2       1 <0>         0.0720
     14 C10         0.4108    0.4772    6.0680 C.2       1 <0>         0.5930
     15 O1         -0.2373   -0.4226    6.5691 O.2       1 <0>        -0.5228
     16 N4          0.9149    1.4573    6.8437 N.am      1 <0>        -0.7197
     17 C11         0.6826    1.4395    8.2900 C.3       1 <0>         0.1936
     18 H2          0.6778    0.4088    8.6445 H         1 <0>         0.1151
     19 C12        -0.6671    2.0910    8.5978 C.3       1 <0>         0.0671
     20 O2         -0.6214    3.4735    8.2393 O.3       1 <0>        -0.5678
     21 C13         1.7797    2.2045    8.9845 C.ar      1 <0>        -0.0799
     22 C14         2.2556    3.3812    8.4363 C.ar      1 <0>        -0.0878
     23 C15         3.2618    4.0834    9.0726 C.ar      1 <0>        -0.1063
     24 C16         3.7933    3.6092   10.2574 C.ar      1 <0>        -0.1060
     25 C17         3.3176    2.4320   10.8063 C.ar      1 <0>        -0.0331
     26 C18         2.3060    1.7326   10.1720 C.ar      1 <0>        -0.0995
     27 Cl1         3.9844    1.8359   12.2942 Cl        1 <0>        -0.0648
     28 N5          0.0566   -4.0725   -0.0296 N.pl3     1 <0>        -0.6348
     29 C19        -0.0459   -4.7600   -1.2457 C.ar      1 <0>         0.1970
     30 C20         0.5331   -4.2338   -2.3927 C.ar      1 <0>        -0.1114
     31 C21         0.4317   -4.9115   -3.5926 C.ar      1 <0>        -0.0861
     32 C22        -0.2452   -6.1153   -3.6563 C.ar      1 <0>        -0.1202
     33 C23        -0.8267   -6.6489   -2.5160 C.ar      1 <0>         0.0549
     34 C24        -0.7229   -5.9736   -1.3047 C.ar      1 <0>        -0.0082
     35 O3         -1.3657   -6.6997   -0.3427 O.3       1 <0>        -0.3096
     36 C25        -2.2065   -7.6246   -1.0577 C.3       1 <0>         0.2162
     37 O4         -1.5361   -7.7981   -2.3161 O.3       1 <0>        -0.3073
     38 H3          1.2941    1.8246   -0.1874 H         1 <0>         0.0699
     39 H4         -0.3760    1.8885   -0.7996 H         1 <0>         0.0701
     40 H5         -0.0708    1.8742    0.9539 H         1 <0>         0.0734
     41 H6         -0.1510   -0.1755   -2.1181 H         1 <0>         0.1713
     42 H7         -0.3993   -1.3072    3.9501 H         1 <0>         0.1552
     43 H8          1.8440    1.6956    1.8344 H         1 <0>         0.1848
     44 H9          1.4316    2.1746    6.4442 H         1 <0>         0.3965
     45 H10        -1.4498    1.5929    8.0258 H         1 <0>         0.0600
     46 H11        -0.8806    1.9986    9.6627 H         1 <0>         0.0600
     47 H12        -1.4454    3.9509    8.4075 H         1 <0>         0.3825
     48 H13         1.8412    3.7517    7.5103 H         1 <0>         0.1284
     49 H14         3.6332    5.0025    8.6440 H         1 <0>         0.1343
     50 H15         4.5800    4.1576   10.7542 H         1 <0>         0.1350
     51 H16         1.9311    0.8158   10.6023 H         1 <0>         0.1358
     52 H17         0.0897   -4.5657    0.8050 H         1 <0>         0.4272
     53 H18         1.0628   -3.2937   -2.3472 H         1 <0>         0.1514
     54 H19         0.8824   -4.4995   -4.4834 H         1 <0>         0.1422
     55 H20        -0.3216   -6.6413   -4.5964 H         1 <0>         0.1365
     56 H21        -2.2774   -8.5710   -0.5216 H         1 <0>         0.1325
     57 H22        -3.1968   -7.1980   -1.2165 H         1 <0>         0.0827
@<TRIPOS>BOND
     1    1    2 1
     2    1   38 1
     3    1   39 1
     4    1   40 1
     5    2    7 ar
     6    2    3 ar
     7    3    4 ar
     8    3   41 1
     9    4    5 ar
    10    5    6 ar
    11    5   28 1
    12    6    7 ar
    13    7    8 1
    14    8   13 2
    15    8    9 1
    16    9   10 2
    17    9   42 1
    18   10   11 1
    19   10   14 1
    20   11   12 1
    21   11   13 1
    22   13   43 1
    23   14   15 2
    24   14   16 am
    25   16   17 1
    26   16   44 1
    27   17   18 1
    28   17   19 1
    29   17   21 1
    30   19   20 1
    31   19   45 1
    32   19   46 1
    33   20   47 1
    34   21   26 ar
    35   21   22 ar
    36   22   23 ar
    37   22   48 1
    38   23   24 ar
    39   23   49 1
    40   24   25 ar
    41   24   50 1
    42   25   26 ar
    43   25   27 1
    44   26   51 1
    45   28   29 1
    46   28   52 1
    47   29   34 ar
    48   29   30 ar
    49   30   31 ar
    50   30   53 1
    51   31   32 ar
    52   31   54 1
    53   32   33 ar
    54   32   55 1
    55   33   37 1
    56   33   34 ar
    57   34   35 1
    58   35   36 1
    59   36   37 1
    60   36   56 1
    61   36   57 1
@<TRIPOS>MOLECULE
CHEMBL571031
   57    60     0     0     0
SMALL
USER_CHARGES

@<TRIPOS>ATOM
      1 C1         -4.2991   -4.1455    3.1959 C.3       1 <0>        -0.1148
      2 C2         -3.2999   -3.7059    2.1569 C.ar      1 <0>        -0.1184
      3 C3         -3.3567   -4.2270    0.8790 C.ar      1 <0>        -0.1008
      4 C4         -2.4407   -3.8239   -0.0750 C.ar      1 <0>        -0.1361
      5 C5         -1.4649   -2.8980    0.2465 C.ar      1 <0>        -0.1053
      6 C6         -1.4025   -2.3731    1.5222 C.ar      1 <0>        -0.1130
      7 C7         -2.3246   -2.7721    2.4816 C.ar      1 <0>         0.1664
      8 N1         -2.2676   -2.2386    3.7727 N.pl3     1 <0>        -0.6372
      9 C8         -1.0461   -1.8869    4.3235 C.ar      1 <0>         0.5546
     10 N2          0.0660   -2.1634    3.6578 N.ar      1 <0>        -0.5543
     11 C9          1.2527   -1.8432    4.1499 C.ar      1 <0>         0.1870
     12 C10         1.3280   -1.2109    5.3773 C.ar      1 <0>        -0.2285
     13 C11         0.1384   -0.9318    6.0569 C.ar      1 <0>         0.2951
     14 N3         -1.0199   -1.2784    5.4988 N.ar      1 <0>        -0.5562
     15 C12         0.1659   -0.2557    7.3752 C.2       1 <0>        -0.1527
     16 C13         0.9344    0.8748    7.7196 C.2       1 <0>        -0.0646
     17 C14         0.6579    1.1651    9.0248 C.2       1 <0>        -0.0580
     18 N4         -0.2565    0.2447    9.4858 N.pl3     1 <0>        -0.5308
     19 H1         -0.6263    0.2193   10.3822 H         1 <0>         0.4202
     20 C15        -0.5594   -0.6110    8.4913 C.2       1 <0>         0.0844
     21 C16         1.2357    2.2677    9.8021 C.2       1 <0>         0.5935
     22 O1          2.0389    3.0213    9.2848 O.2       1 <0>        -0.5239
     23 N5          0.8766    2.4456   11.0889 N.am      1 <0>        -0.7196
     24 C17         1.4533    3.5463   11.8648 C.3       1 <0>         0.1936
     25 H2          1.6060    4.4080   11.2150 H         1 <0>         0.1152
     26 C18         2.7957    3.1071   12.4532 C.3       1 <0>         0.0672
     27 O2          2.5813    2.0530   13.3939 O.3       1 <0>        -0.5678
     28 C19         0.5134    3.9199   12.9820 C.ar      1 <0>        -0.0802
     29 C20        -0.1512    2.9323   13.6854 C.ar      1 <0>        -0.0878
     30 C21        -1.0134    3.2742   14.7102 C.ar      1 <0>        -0.1063
     31 C22        -1.2122    4.6038   15.0321 C.ar      1 <0>        -0.1059
     32 C23        -0.5476    5.5922   14.3286 C.ar      1 <0>        -0.0331
     33 C24         0.3202    5.2491   13.3068 C.ar      1 <0>        -0.0994
     34 Cl1        -0.7967    7.2622   14.7323 Cl        1 <0>        -0.0648
     35 C25         2.6612   -0.8319    5.9689 C.3       1 <0>        -0.0966
     36 H3         -5.1713   -3.4927    3.1604 H         1 <0>         0.0699
     37 H4         -4.6051   -5.1720    2.9943 H         1 <0>         0.0708
     38 H5         -3.8435   -4.0897    4.1846 H         1 <0>         0.0620
     39 H6         -4.1173   -4.9505    0.6248 H         1 <0>         0.1242
     40 H7         -2.4871   -4.2332   -1.0734 H         1 <0>         0.1216
     41 H8         -0.7507   -2.5855   -0.5009 H         1 <0>         0.1233
     42 H9         -0.6403   -1.6501    1.7726 H         1 <0>         0.1356
     43 H10        -3.0833   -2.1148    4.2828 H         1 <0>         0.4217
     44 H11         2.1524   -2.0737    3.5987 H         1 <0>         0.1702
     45 H12         1.6142    1.4100    7.0732 H         1 <0>         0.1554
     46 H13        -1.2517   -1.4373    8.5581 H         1 <0>         0.1807
     47 H14         0.2363    1.8449   11.5013 H         1 <0>         0.3968
     48 H15         3.4449    2.7529   11.6524 H         1 <0>         0.0602
     49 H16         3.2662    3.9523   12.9555 H         1 <0>         0.0600
     50 H17         3.3913    1.7243   13.8075 H         1 <0>         0.3826
     51 H18         0.0033    1.8935   13.4339 H         1 <0>         0.1283
     52 H19        -1.5323    2.5024   15.2593 H         1 <0>         0.1343
     53 H20        -1.8865    4.8708   15.8323 H         1 <0>         0.1350
     54 H21         0.8427    6.0202   12.7602 H         1 <0>         0.1359
     55 H22         2.8829    0.2079    5.7287 H         1 <0>         0.0715
     56 H23         2.6267   -0.9554    7.0513 H         1 <0>         0.0719
     57 H24         3.4384   -1.4741    5.5545 H         1 <0>         0.0671
@<TRIPOS>BOND
     1    1    2 1
     2    1   36 1
     3    1   37 1
     4    1   38 1
     5    2    7 ar
     6    2    3 ar
     7    3    4 ar
     8    3   39 1
     9    4    5 ar
    10    4   40 1
    11    5    6 ar
    12    5   41 1
    13    6    7 ar
    14    6   42 1
    15    7    8 1
    16    8    9 1
    17    8   43 1
    18    9   14 ar
    19    9   10 ar
    20   10   11 ar
    21   11   12 ar
    22   11   44 1
    23   12   13 ar
    24   12   35 1
    25   13   14 ar
    26   13   15 1
    27   15   20 2
    28   15   16 1
    29   16   17 2
    30   16   45 1
    31   17   18 1
    32   17   21 1
    33   18   19 1
    34   18   20 1
    35   20   46 1
    36   21   22 2
    37   21   23 am
    38   23   24 1
    39   23   47 1
    40   24   25 1
    41   24   26 1
    42   24   28 1
    43   26   27 1
    44   26   48 1
    45   26   49 1
    46   27   50 1
    47   28   33 ar
    48   28   29 ar
    49   29   30 ar
    50   29   51 1
    51   30   31 ar
    52   30   52 1
    53   31   32 ar
    54   31   53 1
    55   32   33 ar
    56   32   34 1
    57   33   54 1
    58   35   55 1
    59   35   56 1
    60   35   57 1
@<TRIPOS>MOLECULE
CHEMBL383264
   53    57     0     0     0
SMALL
USER_CHARGES

@<TRIPOS>ATOM
      1 C1         -0.0165    1.3620    0.0095 C.ar      1 <0>        -0.1189
      2 C2          1.1697    2.0834    0.0021 C.ar      1 <0>        -0.0931
      3 C3          2.3856    1.4362   -0.0134 C.ar      1 <0>        -0.1109
      4 C4          2.4281    0.0456   -0.0212 C.ar      1 <0>         0.0986
      5 C5          1.2234   -0.6807   -0.0132 C.ar      1 <0>        -0.1172
      6 C6          0.0021   -0.0041    0.0020 C.ar      1 <0>        -0.1142
      7 C7          1.6036   -2.0953   -0.0245 C.2       1 <0>        -0.2380
      8 C8          2.9451   -2.1410   -0.0380 C.2       1 <0>         0.1042
      9 N1          3.4551   -0.8713   -0.0363 N.pl3     1 <0>        -0.5843
     10 H1          4.3995   -0.6501   -0.0442 H         1 <0>         0.4266
     11 C9          0.6664   -3.2754   -0.0210 C.3       1 <0>        -0.0554
     12 C10         0.2361   -3.5891   -1.4554 C.3       1 <0>         0.0435
     13 H2          1.1200   -3.7379   -2.0756 H         1 <0>         0.1531
     14 C11        -0.6144   -4.8610   -1.4661 C.3       1 <0>         0.0259
     15 O1         -0.9189   -5.2190   -2.8156 O.3       1 <0>        -0.3221
     16 C12        -1.6731   -6.3340   -3.0030 C.ar      1 <0>         0.0686
     17 C13        -2.0063   -6.7503   -4.2858 C.ar      1 <0>        -0.0915
     18 C14        -2.7829   -7.9026   -4.4264 C.ar      1 <0>        -0.0483
     19 C15        -3.1908   -8.5858   -3.2820 C.ar      1 <0>         0.0897
     20 N2         -2.8519   -8.1548   -2.0845 N.ar      1 <0>        -0.4384
     21 C16        -2.1151   -7.0742   -1.9153 C.ar      1 <0>         0.0246
     22 C17        -3.1681   -8.3916   -5.7730 C.ar      1 <0>        -0.0363
     23 C18        -2.7433   -7.6930   -6.9148 C.ar      1 <0>        -0.1139
     24 C19        -3.0811   -8.1180   -8.1604 C.ar      1 <0>        -0.0743
     25 C20        -3.8662   -9.2726   -8.3161 C.ar      1 <0>        -0.1090
     26 C21        -4.2395   -9.7498   -9.5826 C.ar      1 <0>         0.1483
     27 N3         -4.9738  -10.8330   -9.6842 N.ar      1 <0>        -0.4814
     28 C22        -5.3927  -11.5184   -8.6290 C.ar      1 <0>         0.0851
     29 C23        -5.0857  -11.1390   -7.3578 C.ar      1 <0>        -0.1542
     30 C24        -4.3003   -9.9861   -7.1680 C.ar      1 <0>        -0.0225
     31 C25        -3.9376   -9.5348   -5.8929 C.ar      1 <0>        -0.0872
     32 N4         -0.5518   -2.4687   -1.9863 N.4       1 <0>        -0.6362
     33 H3         -0.9613    1.8849    0.0259 H         1 <0>         0.1313
     34 H4          1.1388    3.1630    0.0081 H         1 <0>         0.1354
     35 H5          3.3028    2.0064   -0.0198 H         1 <0>         0.1295
     36 H6         -0.9246   -0.5587    0.0082 H         1 <0>         0.1148
     37 H7          3.5346   -3.0459   -0.0490 H         1 <0>         0.1792
     38 H8          1.1742   -4.1414    0.4036 H         1 <0>         0.1218
     39 H9         -0.2127   -3.0396    0.5787 H         1 <0>         0.0999
     40 H10        -0.0618   -5.6715   -0.9910 H         1 <0>         0.1142
     41 H11        -1.5405   -4.6834   -0.9195 H         1 <0>         0.0923
     42 H12        -1.6739   -6.1971   -5.1517 H         1 <0>         0.1498
     43 H13        -3.7916   -9.4781   -3.3783 H         1 <0>         0.1676
     44 H14        -1.8556   -6.7582   -0.9157 H         1 <0>         0.1594
     45 H15        -2.1395   -6.8048   -6.8011 H         1 <0>         0.1288
     46 H16        -2.7471   -7.5693   -9.0287 H         1 <0>         0.1400
     47 H17        -3.9231   -9.2260  -10.4725 H         1 <0>         0.1672
     48 H18        -5.9945  -12.4019   -8.7822 H         1 <0>         0.1587
     49 H19        -5.4377  -11.7111   -6.5121 H         1 <0>         0.1429
     50 H20        -4.2584  -10.0715   -5.0123 H         1 <0>         0.1389
     51 H21        -1.3700   -2.3311   -1.4122 H         1 <0>         0.4300
     52 H22         0.0090   -1.6300   -1.9793 H         1 <0>         0.4383
     53 H23        -0.8356   -2.6756   -2.9322 H         1 <0>         0.4391
@<TRIPOS>BOND
     1    1    6 ar
     2    1    2 ar
     3    1   33 1
     4    2    3 ar
     5    2   34 1
     6    3    4 ar
     7    3   35 1
     8    4    9 1
     9    4    5 ar
    10    5    6 ar
    11    5    7 1
    12    6   36 1
    13    7    8 2
    14    7   11 1
    15    8    9 1
    16    8   37 1
    17    9   10 1
    18   11   12 1
    19   11   38 1
    20   11   39 1
    21   12   13 1
    22   12   14 1
    23   12   32 1
    24   14   15 1
    25   14   40 1
    26   14   41 1
    27   15   16 1
    28   16   21 ar
    29   16   17 ar
    30   17   18 ar
    31   17   42 1
    32   18   19 ar
    33   18   22 1
    34   19   20 ar
    35   19   43 1
    36   20   21 ar
    37   21   44 1
    38   22   31 ar
    39   22   23 ar
    40   23   24 ar
    41   23   45 1
    42   24   25 ar
    43   24   46 1
    44   25   30 ar
    45   25   26 ar
    46   26   27 ar
    47   26   47 1
    48   27   28 ar
    49   28   29 ar
    50   28   48 1
    51   29   30 ar
    52   29   49 1
    53   30   31 ar
    54   31   50 1
    55   32   51 1
    56   32   52 1
    57   32   53 1
@<TRIPOS>MOLECULE
CHEMBL220272
   45    48     0     0     0
SMALL
USER_CHARGES

@<TRIPOS>ATOM
      1 C1         -0.9673    0.8113    1.7522 C.ar      1 <0>        -0.1052
      2 C2          0.1770    1.5291    1.4583 C.ar      1 <0>        -0.1222
      3 C3          1.3756    0.8691    1.2617 C.ar      1 <0>        -0.0928
      4 C4          1.4300   -0.5087    1.3595 C.ar      1 <0>        -0.0974
      5 C5          0.2860   -1.2264    1.6544 C.ar      1 <0>        -0.0930
      6 C6         -0.9129   -0.5665    1.8495 C.ar      1 <0>        -0.1223
      7 C7          2.7365   -1.2283    1.1443 C.3       1 <0>         0.0741
      8 O1          3.4235   -1.3516    2.3913 O.3       1 <0>        -0.1265
      9 N1          4.6700   -2.0170    2.2988 N.am      1 <0>        -0.6037
     10 C8          5.4200   -2.1996    3.4036 C.2       1 <0>         0.6019
     11 O2          5.0259   -1.7927    4.4806 O.2       1 <0>        -0.4965
     12 C9          6.7117   -2.8892    3.3078 C.2       1 <0>        -0.0445
     13 C10         7.5624   -3.1431    4.3455 C.2       1 <0>        -0.0497
     14 C11         8.6780   -3.8208    3.8110 C.2       1 <0>        -0.1387
     15 C12         8.4623   -3.9550    2.4558 C.2       1 <0>         0.0617
     16 N2          7.2719   -3.3968    2.1573 N.pl3     1 <0>        -0.5316
     17 H1          6.8749   -3.3570    1.2731 H         1 <0>         0.4210
     18 C13         9.8581   -4.2979    4.5633 C.2       1 <0>         0.1857
     19 C14        10.5778   -3.5828    5.5105 C.2       1 <0>        -0.1933
     20 C15        11.6124   -4.4188    5.9679 C.2       1 <0>         0.0723
     21 N3         11.5284   -5.5628    5.3431 N.2       1 <0>        -0.2871
     22 N4         10.4413   -5.5245    4.4624 N.pl3     1 <0>        -0.4685
     23 H2         10.1545   -6.2453    3.8800 H         1 <0>         0.4404
     24 C16        10.3067   -2.1952    5.9568 C.ar      1 <0>         0.0152
     25 C17        10.2399   -1.1607    5.0243 C.ar      1 <0>        -0.0979
     26 C18         9.9869    0.1290    5.4448 C.ar      1 <0>        -0.1043
     27 C19         9.7996    0.3972    6.7889 C.ar      1 <0>        -0.1131
     28 C20         9.8651   -0.6253    7.7197 C.ar      1 <0>        -0.0305
     29 C21        10.1121   -1.9210    7.3093 C.ar      1 <0>        -0.1020
     30 Cl1         9.6300   -0.2798    9.4047 Cl        1 <0>        -0.0713
     31 H3         -1.9028    1.3273    1.9102 H         1 <0>         0.1265
     32 H4          0.1344    2.6056    1.3819 H         1 <0>         0.1275
     33 H5          2.2694    1.4299    1.0314 H         1 <0>         0.1252
     34 H6          0.3285   -2.3029    1.7304 H         1 <0>         0.1250
     35 H7         -1.8068   -1.1273    2.0794 H         1 <0>         0.1274
     36 H8          2.5420   -2.2205    0.7370 H         1 <0>         0.0719
     37 H9          3.3519   -0.6626    0.4448 H         1 <0>         0.0722
     38 H10         4.9841   -2.3413    1.4403 H         1 <0>         0.3992
     39 H11         7.4099   -2.8751    5.3806 H         1 <0>         0.1570
     40 H12         9.1313   -4.4302    1.7535 H         1 <0>         0.1814
     41 H13        12.3518   -4.1587    6.7109 H         1 <0>         0.1876
     42 H14        10.3862   -1.3684    3.9746 H         1 <0>         0.1244
     43 H15         9.9353    0.9307    4.7230 H         1 <0>         0.1300
     44 H16         9.6018    1.4082    7.1132 H         1 <0>         0.1312
     45 H17        10.1584   -2.7191    8.0354 H         1 <0>         0.1334
@<TRIPOS>BOND
     1    1    6 ar
     2    1    2 ar
     3    1   31 1
     4    2    3 ar
     5    2   32 1
     6    3    4 ar
     7    3   33 1
     8    4    5 ar
     9    4    7 1
    10    5    6 ar
    11    5   34 1
    12    6   35 1
    13    7    8 1
    14    7   36 1
    15    7   37 1
    16    8    9 1
    17    9   10 am
    18    9   38 1
    19   10   11 2
    20   10   12 1
    21   12   16 1
    22   12   13 2
    23   13   14 1
    24   13   39 1
    25   14   15 2
    26   14   18 1
    27   15   16 1
    28   15   40 1
    29   16   17 1
    30   18   22 1
    31   18   19 2
    32   19   20 1
    33   19   24 1
    34   20   21 2
    35   20   41 1
    36   21   22 1
    37   22   23 1
    38   24   29 ar
    39   24   25 ar
    40   25   26 ar
    41   25   42 1
    42   26   27 ar
    43   26   43 1
    44   27   28 ar
    45   27   44 1
    46   28   29 ar
    47   28   30 1
    48   29   45 1
@<TRIPOS>MOLECULE
CHEMBL220272__1
   45    48     0     0     0
SMALL
USER_CHARGES

@<TRIPOS>ATOM
      1 C1         -0.0167    1.3781    0.0096 C.ar      1 <0>        -0.1058
      2 C2          1.1709    2.0855    0.0021 C.ar      1 <0>        -0.1225
      3 C3          2.3773    1.4107   -0.0130 C.ar      1 <0>        -0.0930
      4 C4          2.3960    0.0285   -0.0201 C.ar      1 <0>        -0.0967
      5 C5          1.2084   -0.6789   -0.0117 C.ar      1 <0>        -0.0930
      6 C6          0.0021   -0.0041    0.0020 C.ar      1 <0>        -0.1225
      7 C7          3.7112   -0.7071   -0.0376 C.3       1 <0>         0.0740
      8 O1          4.1410   -0.9464    1.3041 O.3       1 <0>        -0.1277
      9 N1          5.3740   -1.6360    1.3995 N.am      1 <0>        -0.6038
     10 C8          5.8926   -1.9250    2.6095 C.2       1 <0>         0.6040
     11 O2          5.3011   -1.5933    3.6200 O.2       1 <0>        -0.5012
     12 C9          7.1702   -2.6396    2.7084 C.2       1 <0>        -0.0495
     13 C10         7.8028   -2.9987    3.8656 C.2       1 <0>        -0.0593
     14 C11         8.9902   -3.6612    3.4989 C.2       1 <0>        -0.1154
     15 C12         9.0414   -3.6836    2.1340 C.2       1 <0>         0.0751
     16 N2          7.9400   -3.0716    1.6520 N.pl3     1 <0>        -0.5359
     17 H1          7.7262   -2.9533    0.7133 H         1 <0>         0.4198
     18 C13        10.0006   -4.2301    4.4252 C.2       1 <0>         0.1746
     19 C14        10.7647   -5.4039    4.2082 C.2       1 <0>        -0.2028
     20 C15        11.5704   -5.5745    5.2943 C.2       1 <0>         0.0827
     21 N3         11.3278   -4.5621    6.1515 N.pl3     1 <0>        -0.4689
     22 N4         10.3502   -3.7319    5.5904 N.2       1 <0>        -0.2788
     23 H2         11.7595   -4.4300    7.0100 H         1 <0>         0.4449
     24 C16        10.6993   -6.2859    3.0170 C.ar      1 <0>         0.0150
     25 C17         9.4673   -6.7424    2.5518 C.ar      1 <0>        -0.1009
     26 C18         9.4115   -7.5622    1.4431 C.ar      1 <0>        -0.1047
     27 C19        10.5753   -7.9318    0.7933 C.ar      1 <0>        -0.1157
     28 C20        11.8019   -7.4820    1.2508 C.ar      1 <0>        -0.0319
     29 C21        11.8685   -6.6559    2.3561 C.ar      1 <0>        -0.1068
     30 Cl1        13.2581   -7.9513    0.4304 Cl        1 <0>        -0.0705
     31 H3         -0.9591    1.9053    0.0259 H         1 <0>         0.1262
     32 H4          1.1563    3.1654    0.0076 H         1 <0>         0.1272
     33 H5          3.3051    1.9634   -0.0196 H         1 <0>         0.1252
     34 H6          1.2231   -1.7588   -0.0176 H         1 <0>         0.1252
     35 H7         -0.9258   -0.5567    0.0082 H         1 <0>         0.1272
     36 H8          3.5884   -1.6586   -0.5549 H         1 <0>         0.0721
     37 H9          4.4573   -0.1052   -0.5563 H         1 <0>         0.0720
     38 H10         5.8455   -1.9004    0.5941 H         1 <0>         0.3998
     39 H11         7.4575   -2.8096    4.8712 H         1 <0>         0.1563
     40 H12         9.8298   -4.1218    1.5400 H         1 <0>         0.1781
     41 H13        12.2771   -6.3777    5.4422 H         1 <0>         0.1815
     42 H14         8.5578   -6.4553    3.0585 H         1 <0>         0.1302
     43 H15         8.4571   -7.9163    1.0822 H         1 <0>         0.1318
     44 H16        10.5269   -8.5738   -0.0738 H         1 <0>         0.1317
     45 H17        12.8254   -6.3016    2.7100 H         1 <0>         0.1328
@<TRIPOS>BOND
     1    1    6 ar
     2    1    2 ar
     3    1   31 1
     4    2    3 ar
     5    2   32 1
     6    3    4 ar
     7    3   33 1
     8    4    5 ar
     9    4    7 1
    10    5    6 ar
    11    5   34 1
    12    6   35 1
    13    7    8 1
    14    7   36 1
    15    7   37 1
    16    8    9 1
    17    9   10 am
    18    9   38 1
    19   10   11 2
    20   10   12 1
    21   12   16 1
    22   12   13 2
    23   13   14 1
    24   13   39 1
    25   14   15 2
    26   14   18 1
    27   15   16 1
    28   15   40 1
    29   16   17 1
    30   18   22 2
    31   18   19 1
    32   19   24 1
    33   19   20 2
    34   20   41 1
    35   20   21 1
    36   21   22 1
    37   21   23 1
    38   24   29 ar
    39   24   25 ar
    40   25   26 ar
    41   25   42 1
    42   26   27 ar
    43   26   43 1
    44   27   28 ar
    45   27   44 1
    46   28   29 ar
    47   28   30 1
    48   29   45 1
@<TRIPOS>MOLECULE
CHEMBL572157
   60    63     0     0     0
SMALL
USER_CHARGES

@<TRIPOS>ATOM
      1 C1         -5.1018   -2.6115   -1.8303 C.3       1 <0>        -0.1157
      2 C2         -3.8137   -3.3188   -1.4966 C.ar      1 <0>        -0.0650
      3 C3         -2.7768   -3.3342   -2.4118 C.ar      1 <0>        -0.1416
      4 C4         -1.5933   -3.9820   -2.1096 C.ar      1 <0>        -0.0995
      5 C5         -1.4431   -4.6167   -0.8920 C.ar      1 <0>        -0.1332
      6 C6         -2.4822   -4.6032    0.0293 C.ar      1 <0>         0.1716
      7 C7         -3.6678   -3.9462   -0.2752 C.ar      1 <0>        -0.1247
      8 C8         -4.7958   -3.9237    0.7239 C.3       1 <0>        -0.1161
      9 N1         -2.3335   -5.2447    1.2626 N.pl3     1 <0>        -0.6337
     10 C9         -1.0677   -5.4634    1.7814 C.ar      1 <0>         0.5541
     11 N2         -0.0170   -4.9482    1.1592 N.ar      1 <0>        -0.5529
     12 C10         1.2090   -5.1342    1.6233 C.ar      1 <0>         0.1852
     13 C11         1.3911   -5.8776    2.7748 C.ar      1 <0>        -0.2280
     14 C12         0.2643   -6.4088    3.4098 C.ar      1 <0>         0.2961
     15 N3         -0.9391   -6.1769    2.8888 N.ar      1 <0>        -0.5564
     16 C13         0.4066   -7.2129    4.6463 C.2       1 <0>        -0.1539
     17 C14         1.2494   -6.9250    5.7390 C.2       1 <0>        -0.0646
     18 C15         1.0697   -7.9196    6.6571 C.2       1 <0>        -0.0582
     19 N4          0.1422   -8.8052    6.1558 N.pl3     1 <0>        -0.5308
     20 H1         -0.1713   -9.6058    6.6048 H         1 <0>         0.4203
     21 C16        -0.2644   -8.3785    4.9451 C.2       1 <0>         0.0860
     22 C17         1.7480   -8.0263    7.9540 C.2       1 <0>         0.5934
     23 O1          2.5530   -7.1783    8.2912 O.2       1 <0>        -0.5238
     24 N5          1.4794   -9.0634    8.7717 N.am      1 <0>        -0.7195
     25 C18         2.1565   -9.1699   10.0665 C.3       1 <0>         0.1937
     26 H2          2.3100   -8.1729   10.4793 H         1 <0>         0.1152
     27 C19         3.5100   -9.8582    9.8790 C.3       1 <0>         0.0672
     28 O2          3.3039  -11.2050    9.4483 O.3       1 <0>        -0.5679
     29 C20         1.3077   -9.9800   11.0121 C.ar      1 <0>        -0.0803
     30 C21         0.6411  -11.1016   10.5545 C.ar      1 <0>        -0.0877
     31 C22        -0.1375  -11.8451   11.4212 C.ar      1 <0>        -0.1063
     32 C23        -0.2507  -11.4675   12.7462 C.ar      1 <0>        -0.1059
     33 C24         0.4159  -10.3454   13.2046 C.ar      1 <0>        -0.0331
     34 C25         1.2002   -9.6050   12.3378 C.ar      1 <0>        -0.0995
     35 Cl1         0.2743   -9.8706   14.8684 Cl        1 <0>        -0.0647
     36 C26         2.7717   -6.1105    3.3321 C.3       1 <0>        -0.0974
     37 H3         -5.0392   -1.5718   -1.5090 H         1 <0>         0.0705
     38 H4         -5.2689   -2.6496   -2.9068 H         1 <0>         0.0671
     39 H5         -5.9290   -3.1013   -1.3166 H         1 <0>         0.0677
     40 H6         -2.8920   -2.8393   -3.3648 H         1 <0>         0.1201
     41 H7         -0.7856   -3.9921   -2.8264 H         1 <0>         0.1229
     42 H8         -0.5186   -5.1232   -0.6568 H         1 <0>         0.1511
     43 H9         -5.4410   -4.7874    0.5629 H         1 <0>         0.0693
     44 H10        -4.3874   -3.9584    1.7339 H         1 <0>         0.0610
     45 H11        -5.3750   -3.0090    0.5974 H         1 <0>         0.0735
     46 H12        -3.1165   -5.5366    1.7551 H         1 <0>         0.4217
     47 H13         2.0579   -4.7099    1.1078 H         1 <0>         0.1710
     48 H14         1.9125   -6.0776    5.8323 H         1 <0>         0.1560
     49 H15        -0.9911   -8.8685    4.3141 H         1 <0>         0.1812
     50 H16         0.8377   -9.7393    8.5030 H         1 <0>         0.3968
     51 H17         4.0898   -9.3213    9.1282 H         1 <0>         0.0602
     52 H18         4.0518   -9.8581   10.8249 H         1 <0>         0.0600
     53 H19         4.1212  -11.7029    9.3091 H         1 <0>         0.3826
     54 H20         0.7287  -11.3967    9.5193 H         1 <0>         0.1283
     55 H21        -0.6580  -12.7211   11.0632 H         1 <0>         0.1343
     56 H22        -0.8598  -12.0481   13.4232 H         1 <0>         0.1350
     57 H23         1.7245   -8.7314   12.6962 H         1 <0>         0.1359
     58 H24         2.9810   -5.3710    4.1051 H         1 <0>         0.0717
     59 H25         2.8262   -7.1107    3.7618 H         1 <0>         0.0724
     60 H26         3.5067   -6.0181    2.5324 H         1 <0>         0.0675
@<TRIPOS>BOND
     1    1    2 1
     2    1   37 1
     3    1   38 1
     4    1   39 1
     5    2    7 ar
     6    2    3 ar
     7    3    4 ar
     8    3   40 1
     9    4    5 ar
    10    4   41 1
    11    5    6 ar
    12    5   42 1
    13    6    7 ar
    14    6    9 1
    15    7    8 1
    16    8   43 1
    17    8   44 1
    18    8   45 1
    19    9   10 1
    20    9   46 1
    21   10   15 ar
    22   10   11 ar
    23   11   12 ar
    24   12   13 ar
    25   12   47 1
    26   13   14 ar
    27   13   36 1
    28   14   15 ar
    29   14   16 1
    30   16   21 2
    31   16   17 1
    32   17   18 2
    33   17   48 1
    34   18   19 1
    35   18   22 1
    36   19   20 1
    37   19   21 1
    38   21   49 1
    39   22   23 2
    40   22   24 am
    41   24   25 1
    42   24   50 1
    43   25   26 1
    44   25   27 1
    45   25   29 1
    46   27   28 1
    47   27   51 1
    48   27   52 1
    49   28   53 1
    50   29   34 ar
    51   29   30 ar
    52   30   31 ar
    53   30   54 1
    54   31   32 ar
    55   31   55 1
    56   32   33 ar
    57   32   56 1
    58   33   34 ar
    59   33   35 1
    60   34   57 1
    61   36   58 1
    62   36   59 1
    63   36   60 1
@<TRIPOS>MOLECULE
CHEMBL220320
   44    47     0     0     0
SMALL
USER_CHARGES

@<TRIPOS>ATOM
      1 C1          1.5534    2.1008   -1.2739 C.ar      1 <0>        -0.1096
      2 C2          2.8384    2.6064   -1.2101 C.ar      1 <0>        -0.1212
      3 C3          3.9105    1.7501   -1.0422 C.ar      1 <0>        -0.1008
      4 C4          3.6976    0.3882   -0.9376 C.ar      1 <0>        -0.1143
      5 C5          2.4125   -0.1173   -1.0005 C.ar      1 <0>        -0.1005
      6 C6          1.3406    0.7389   -1.1699 C.ar      1 <0>        -0.1211
      7 C7          4.8665   -0.5454   -0.7556 C.3       1 <0>         0.1627
      8 N1          5.1302   -0.7247    0.6743 N.am      1 <0>        -0.7280
      9 C8          6.1374   -1.5236    1.0788 C.2       1 <0>         0.5883
     10 O1          6.8278   -2.0960    0.2563 O.2       1 <0>        -0.5182
     11 C9          6.4015   -1.7032    2.5110 C.2       1 <0>        -0.0520
     12 C10         7.3890   -2.4761    3.0521 C.2       1 <0>        -0.0574
     13 C11         7.2832   -2.3626    4.4541 C.2       1 <0>        -0.1407
     14 C12         6.2259   -1.5172    4.7158 C.2       1 <0>         0.0565
     15 N2          5.7004   -1.1169    3.5405 N.pl3     1 <0>        -0.5288
     16 H1          4.9474   -0.5142    3.4369 H         1 <0>         0.4210
     17 C13         8.1451   -3.0260    5.4556 C.2       1 <0>         0.1877
     18 C14         8.5316   -4.3592    5.4586 C.2       1 <0>        -0.1957
     19 C15         9.3455   -4.5557    6.5889 C.2       1 <0>         0.0723
     20 N3          9.4474   -3.4217    7.2292 N.2       1 <0>        -0.2881
     21 N4          8.7149   -2.4435    6.5469 N.pl3     1 <0>        -0.4690
     22 H2          8.6267   -1.5133    6.8071 H         1 <0>         0.4402
     23 C16         8.1560   -5.3855    4.4568 C.ar      1 <0>         0.0167
     24 C17         6.8123   -5.6320    4.1777 C.ar      1 <0>        -0.0974
     25 C18         6.4679   -6.5879    3.2442 C.ar      1 <0>        -0.1045
     26 C19         7.4527   -7.3017    2.5850 C.ar      1 <0>        -0.1137
     27 C20         8.7885   -7.0620    2.8579 C.ar      1 <0>        -0.0305
     28 C21         9.1447   -6.1033    3.7864 C.ar      1 <0>        -0.1023
     29 Cl1        10.0180   -7.9630    2.0270 Cl        1 <0>        -0.0717
     30 H3          0.7154    2.7702   -1.4006 H         1 <0>         0.1248
     31 H4          3.0048    3.6703   -1.2918 H         1 <0>         0.1255
     32 H5          4.9145    2.1450   -0.9931 H         1 <0>         0.1245
     33 H6          2.2462   -1.1813   -0.9192 H         1 <0>         0.1248
     34 H7          0.3366    0.3439   -1.2194 H         1 <0>         0.1256
     35 H8          4.6343   -1.5104   -1.2060 H         1 <0>         0.0812
     36 H9          5.7479   -0.1223   -1.2373 H         1 <0>         0.0808
     37 H10         4.5798   -0.2684    1.3299 H         1 <0>         0.3949
     38 H11         8.1140   -3.0639    2.5088 H         1 <0>         0.1540
     39 H12         5.8801   -1.2225    5.6956 H         1 <0>         0.1788
     40 H13         9.8084   -5.4874    6.8786 H         1 <0>         0.1873
     41 H14         6.0422   -5.0759    4.6917 H         1 <0>         0.1241
     42 H15         5.4273   -6.7796    3.0278 H         1 <0>         0.1297
     43 H16         7.1783   -8.0489    1.8551 H         1 <0>         0.1310
     44 H17        10.1871   -5.9133    3.9954 H         1 <0>         0.1331
@<TRIPOS>BOND
     1    1    6 ar
     2    1    2 ar
     3    1   30 1
     4    2    3 ar
     5    2   31 1
     6    3    4 ar
     7    3   32 1
     8    4    5 ar
     9    4    7 1
    10    5    6 ar
    11    5   33 1
    12    6   34 1
    13    7    8 1
    14    7   35 1
    15    7   36 1
    16    8    9 am
    17    8   37 1
    18    9   10 2
    19    9   11 1
    20   11   15 1
    21   11   12 2
    22   12   13 1
    23   12   38 1
    24   13   14 2
    25   13   17 1
    26   14   15 1
    27   14   39 1
    28   15   16 1
    29   17   21 1
    30   17   18 2
    31   18   19 1
    32   18   23 1
    33   19   20 2
    34   19   40 1
    35   20   21 1
    36   21   22 1
    37   23   28 ar
    38   23   24 ar
    39   24   25 ar
    40   24   41 1
    41   25   26 ar
    42   25   42 1
    43   26   27 ar
    44   26   43 1
    45   27   28 ar
    46   27   29 1
    47   28   44 1
@<TRIPOS>MOLECULE
CHEMBL220320__1
   44    47     0     0     0
SMALL
USER_CHARGES

@<TRIPOS>ATOM
      1 C1         -0.0167    1.3781    0.0096 C.ar      1 <0>        -0.1101
      2 C2          1.1709    2.0855    0.0021 C.ar      1 <0>        -0.1213
      3 C3          2.3773    1.4107   -0.0130 C.ar      1 <0>        -0.1006
      4 C4          2.3960    0.0285   -0.0201 C.ar      1 <0>        -0.1136
      5 C5          1.2084   -0.6789   -0.0117 C.ar      1 <0>        -0.1006
      6 C6          0.0021   -0.0041    0.0020 C.ar      1 <0>        -0.1212
      7 C7          3.7112   -0.7071   -0.0376 C.3       1 <0>         0.1627
      8 N1          4.1518   -0.9524    1.3379 N.am      1 <0>        -0.7286
      9 C8          5.3108   -1.6005    1.5688 C.2       1 <0>         0.5904
     10 O1          5.9912   -1.9819    0.6348 O.2       1 <0>        -0.5227
     11 C9          5.7521   -1.8461    2.9463 C.2       1 <0>        -0.0571
     12 C10         6.9022   -2.4828    3.3204 C.2       1 <0>        -0.0676
     13 C11         6.9271   -2.4975    4.7284 C.2       1 <0>        -0.1172
     14 C12         5.7942   -1.8709    5.1642 C.2       1 <0>         0.0705
     15 N2          5.0835   -1.4706    4.0897 N.pl3     1 <0>        -0.5332
     16 H1          4.2375   -0.9969    4.1181 H         1 <0>         0.4196
     17 C13         7.9890   -3.0862    5.5820 C.2       1 <0>         0.1759
     18 C14         8.4283   -2.5847    6.8327 C.2       1 <0>        -0.2033
     19 C15         9.4119   -3.4136    7.2835 C.2       1 <0>         0.0822
     20 N3          9.5844   -4.3868    6.3661 N.pl3     1 <0>        -0.4697
     21 N4          8.6854   -4.1687    5.3153 N.2       1 <0>        -0.2801
     22 H2         10.2214   -5.1160    6.4255 H         1 <0>         0.4446
     23 C16         7.9123   -1.3779    7.5245 C.ar      1 <0>         0.0154
     24 C17         7.8012   -0.1711    6.8361 C.ar      1 <0>        -0.1003
     25 C18         7.3202    0.9485    7.4837 C.ar      1 <0>        -0.1047
     26 C19         6.9488    0.8754    8.8141 C.ar      1 <0>        -0.1158
     27 C20         7.0572   -0.3201    9.5033 C.ar      1 <0>        -0.0320
     28 C21         7.5317   -1.4485    8.8627 C.ar      1 <0>        -0.1070
     29 Cl1         6.5901   -0.4033   11.1732 Cl        1 <0>        -0.0707
     30 H3         -0.9591    1.9053    0.0259 H         1 <0>         0.1245
     31 H4          1.1563    3.1654    0.0076 H         1 <0>         0.1253
     32 H5          3.3051    1.9634   -0.0196 H         1 <0>         0.1246
     33 H6          1.2231   -1.7588   -0.0176 H         1 <0>         0.1246
     34 H7         -0.9258   -0.5567    0.0082 H         1 <0>         0.1253
     35 H8          3.5884   -1.6586   -0.5549 H         1 <0>         0.0803
     36 H9          4.4573   -0.1052   -0.5563 H         1 <0>         0.0804
     37 H10         3.6095   -0.6484    2.0824 H         1 <0>         0.3954
     38 H11         7.6503   -2.8970    2.6607 H         1 <0>         0.1531
     39 H12         5.5161   -1.7177    6.1965 H         1 <0>         0.1756
     40 H13         9.9565   -3.3094    8.2103 H         1 <0>         0.1813
     41 H14         8.0914   -0.1123    5.7975 H         1 <0>         0.1298
     42 H15         7.2339    1.8839    6.9507 H         1 <0>         0.1316
     43 H16         6.5733    1.7543    9.3171 H         1 <0>         0.1316
     44 H17         7.6119   -2.3821    9.3996 H         1 <0>         0.1326
@<TRIPOS>BOND
     1    1    6 ar
     2    1    2 ar
     3    1   30 1
     4    2    3 ar
     5    2   31 1
     6    3    4 ar
     7    3   32 1
     8    4    5 ar
     9    4    7 1
    10    5    6 ar
    11    5   33 1
    12    6   34 1
    13    7    8 1
    14    7   35 1
    15    7   36 1
    16    8    9 am
    17    8   37 1
    18    9   10 2
    19    9   11 1
    20   11   15 1
    21   11   12 2
    22   12   13 1
    23   12   38 1
    24   13   14 2
    25   13   17 1
    26   14   15 1
    27   14   39 1
    28   15   16 1
    29   17   21 2
    30   17   18 1
    31   18   23 1
    32   18   19 2
    33   19   40 1
    34   19   20 1
    35   20   21 1
    36   20   22 1
    37   23   28 ar
    38   23   24 ar
    39   24   25 ar
    40   24   41 1
    41   25   26 ar
    42   25   42 1
    43   26   27 ar
    44   26   43 1
    45   27   28 ar
    46   27   29 1
    47   28   44 1
@<TRIPOS>MOLECULE
CHEMBL219988
   48    51     0     0     0
SMALL
USER_CHARGES

@<TRIPOS>ATOM
      1 C1         -0.0920    1.3894   -0.0873 C.ar      1 <0>        -0.1261
      2 C2          1.0475    2.1654    0.0196 C.ar      1 <0>        -0.0878
      3 C3          2.2794    1.5644    0.1939 C.ar      1 <0>        -0.1488
      4 C4          2.3726    0.1844    0.2614 C.ar      1 <0>         0.1075
      5 C5          1.2311   -0.5915    0.1543 C.ar      1 <0>        -0.1203
      6 C6         -0.0001    0.0119   -0.0200 C.ar      1 <0>        -0.0719
      7 C7          1.3310   -2.0934    0.2271 C.3       1 <0>         0.1934
      8 C8          1.6144   -2.6540   -1.1680 C.3       1 <0>         0.0684
      9 O1          0.6145   -2.1929   -2.0788 O.3       1 <0>        -0.5675
     10 N1          0.0683   -2.6431    0.7270 N.am      1 <0>        -0.7198
     11 C9          0.0642   -3.7981    1.4215 C.2       1 <0>         0.5910
     12 O2          1.1093   -4.3845    1.6333 O.2       1 <0>        -0.5184
     13 C10        -1.2005   -4.3487    1.9222 C.2       1 <0>        -0.0520
     14 C11        -1.3430   -5.5016    2.6403 C.2       1 <0>        -0.0559
     15 C12        -2.7185   -5.6528    2.9134 C.2       1 <0>        -0.1406
     16 C13        -3.3673   -4.5765    2.3460 C.2       1 <0>         0.0581
     17 N2         -2.4469   -3.7890    1.7540 N.pl3     1 <0>        -0.5284
     18 H1         -2.6333   -2.9618    1.2829 H         1 <0>         0.4206
     19 C14        -3.3472   -6.7586    3.6670 C.2       1 <0>         0.1876
     20 C15        -3.0954   -8.1143    3.5075 C.2       1 <0>        -0.1957
     21 C16        -3.9099   -8.8014    4.4257 C.2       1 <0>         0.0723
     22 N3         -4.6085   -7.9256    5.0972 N.2       1 <0>        -0.2878
     23 N4         -4.2787   -6.6398    4.6535 N.pl3     1 <0>        -0.4688
     24 H2         -4.6504   -5.8088    4.9886 H         1 <0>         0.4403
     25 C17        -2.1450   -8.7247    2.5473 C.ar      1 <0>         0.0168
     26 C18        -2.2500   -8.4452    1.1853 C.ar      1 <0>        -0.0973
     27 C19        -1.3626   -9.0154    0.2957 C.ar      1 <0>        -0.1046
     28 C20        -0.3696   -9.8635    0.7524 C.ar      1 <0>        -0.1138
     29 C21        -0.2603  -10.1454    2.1033 C.ar      1 <0>        -0.0305
     30 C22        -1.1397   -9.5755    3.0033 C.ar      1 <0>        -0.1022
     31 Cl1         0.9880  -11.2116    2.6678 Cl        1 <0>        -0.0715
     32 F1          3.5767   -0.4043    0.4314 F         1 <0>        -0.1345
     33 H3         -1.0550    1.8602   -0.2191 H         1 <0>         0.1318
     34 H4          0.9746    3.2416   -0.0335 H         1 <0>         0.1353
     35 H5          3.1693    2.1707    0.2770 H         1 <0>         0.1391
     36 H6         -0.8908   -0.5932   -0.1032 H         1 <0>         0.1246
     37 H7          2.1407   -2.3714    0.9018 H         1 <0>         0.1194
     38 H8          2.5949   -2.3157   -1.5031 H         1 <0>         0.0601
     39 H9          1.5986   -3.7433   -1.1320 H         1 <0>         0.0606
     40 H10         0.7314   -2.5101   -2.9848 H         1 <0>         0.3828
     41 H11        -0.7647   -2.1757    0.5582 H         1 <0>         0.3961
     42 H12        -0.5515   -6.1716    2.9421 H         1 <0>         0.1542
     43 H13        -4.4313   -4.3934    2.3744 H         1 <0>         0.1795
     44 H14        -3.9507   -9.8730    4.5539 H         1 <0>         0.1873
     45 H15        -3.0248   -7.7836    0.8271 H         1 <0>         0.1241
     46 H16        -1.4437   -8.7996   -0.7594 H         1 <0>         0.1295
     47 H17         0.3226  -10.3075    0.0524 H         1 <0>         0.1308
     48 H18        -1.0509   -9.7919    4.0577 H         1 <0>         0.1332
@<TRIPOS>BOND
     1    1    6 ar
     2    1    2 ar
     3    1   33 1
     4    2    3 ar
     5    2   34 1
     6    3    4 ar
     7    3   35 1
     8    4    5 ar
     9    4   32 1
    10    5    6 ar
    11    5    7 1
    12    6   36 1
    13    7    8 1
    14    7   10 1
    15    7   37 1
    16    8    9 1
    17    8   38 1
    18    8   39 1
    19    9   40 1
    20   10   11 am
    21   10   41 1
    22   11   12 2
    23   11   13 1
    24   13   17 1
    25   13   14 2
    26   14   15 1
    27   14   42 1
    28   15   16 2
    29   15   19 1
    30   16   17 1
    31   16   43 1
    32   17   18 1
    33   19   23 1
    34   19   20 2
    35   20   21 1
    36   20   25 1
    37   21   22 2
    38   21   44 1
    39   22   23 1
    40   23   24 1
    41   25   30 ar
    42   25   26 ar
    43   26   27 ar
    44   26   45 1
    45   27   28 ar
    46   27   46 1
    47   28   29 ar
    48   28   47 1
    49   29   30 ar
    50   29   31 1
    51   30   48 1
@<TRIPOS>MOLECULE
CHEMBL219988__1
   48    51     0     0     0
SMALL
USER_CHARGES

@<TRIPOS>ATOM
      1 C1         -0.0841    1.3494   -0.1995 C.ar      1 <0>        -0.1258
      2 C2          1.0882    2.0821   -0.1741 C.ar      1 <0>        -0.0882
      3 C3          2.3067    1.4347   -0.0993 C.ar      1 <0>        -0.1493
      4 C4          2.3534    0.0516   -0.0498 C.ar      1 <0>         0.1072
      5 C5          1.1789   -0.6809   -0.0753 C.ar      1 <0>        -0.1196
      6 C6         -0.0387   -0.0312   -0.1501 C.ar      1 <0>        -0.0716
      7 C7          1.2281   -2.1862   -0.0220 C.3       1 <0>         0.1939
      8 C8          1.3809   -2.7420   -1.4392 C.3       1 <0>         0.0680
      9 O1          0.3308   -2.2351   -2.2654 O.3       1 <0>        -0.5672
     10 N1         -0.0113   -2.6946    0.5710 N.am      1 <0>        -0.7203
     11 C9         -0.0130   -3.8761    1.2193 C.2       1 <0>         0.5931
     12 O2          1.0150   -4.5207    1.3122 O.2       1 <0>        -0.5229
     13 C10        -1.2543   -4.3853    1.8131 C.2       1 <0>        -0.0570
     14 C11        -1.3948   -5.5592    2.4989 C.2       1 <0>        -0.0661
     15 C12        -2.7448   -5.6508    2.8892 C.2       1 <0>        -0.1170
     16 C13        -3.3803   -4.5324    2.4295 C.2       1 <0>         0.0720
     17 N2         -2.4814   -3.7619    1.7829 N.pl3     1 <0>        -0.5329
     18 H1         -2.6696   -2.9080    1.3629 H         1 <0>         0.4192
     19 C14        -3.3635   -6.7590    3.6584 C.2       1 <0>         0.1758
     20 C15        -4.4028   -6.6336    4.6139 C.2       1 <0>        -0.2031
     21 C16        -4.6795   -7.8825    5.0843 C.2       1 <0>         0.0823
     22 N3         -3.8584   -8.7505    4.4590 N.pl3     1 <0>        -0.4696
     23 N4         -3.0491   -8.0324    3.5706 N.2       1 <0>        -0.2801
     24 H2         -3.8345   -9.7101    4.5989 H         1 <0>         0.4446
     25 C17        -5.0676   -5.3732    5.0268 C.ar      1 <0>         0.0153
     26 C18        -4.3032   -4.2672    5.3944 C.ar      1 <0>        -0.1004
     27 C19        -4.9262   -3.0969    5.7773 C.ar      1 <0>        -0.1046
     28 C20        -6.3071   -3.0196    5.7974 C.ar      1 <0>        -0.1157
     29 C21        -7.0718   -4.1147    5.4340 C.ar      1 <0>        -0.0319
     30 C22        -6.4581   -5.2891    5.0431 C.ar      1 <0>        -0.1070
     31 Cl1        -8.8044   -4.0101    5.4630 Cl        1 <0>        -0.0707
     32 F1          3.5441   -0.5824    0.0229 F         1 <0>        -0.1349
     33 H3         -1.0362    1.8564   -0.2534 H         1 <0>         0.1319
     34 H4          1.0516    3.1608   -0.2130 H         1 <0>         0.1350
     35 H5          3.2222    2.0072   -0.0799 H         1 <0>         0.1387
     36 H6         -0.9551   -0.6024   -0.1696 H         1 <0>         0.1256
     37 H7          2.0770   -2.5007    0.5851 H         1 <0>         0.1180
     38 H8          2.3442   -2.4363   -1.8475 H         1 <0>         0.0594
     39 H9          1.3273   -3.8303   -1.4105 H         1 <0>         0.0608
     40 H10         0.3649   -2.5467   -3.1802 H         1 <0>         0.3824
     41 H11        -0.8308   -2.1808    0.4970 H         1 <0>         0.3964
     42 H12        -0.6173   -6.2807    2.7024 H         1 <0>         0.1534
     43 H13        -4.4266   -4.3015    2.5648 H         1 <0>         0.1762
     44 H14        -5.4236   -8.1325    5.8260 H         1 <0>         0.1813
     45 H15        -3.2249   -4.3262    5.3798 H         1 <0>         0.1298
     46 H16        -4.3343   -2.2396    6.0622 H         1 <0>         0.1317
     47 H17        -6.7904   -2.1018    6.0982 H         1 <0>         0.1317
     48 H18        -7.0551   -6.1419    4.7553 H         1 <0>         0.1326
@<TRIPOS>BOND
     1    1    6 ar
     2    1    2 ar
     3    1   33 1
     4    2    3 ar
     5    2   34 1
     6    3    4 ar
     7    3   35 1
     8    4    5 ar
     9    4   32 1
    10    5    6 ar
    11    5    7 1
    12    6   36 1
    13    7    8 1
    14    7   10 1
    15    7   37 1
    16    8    9 1
    17    8   38 1
    18    8   39 1
    19    9   40 1
    20   10   11 am
    21   10   41 1
    22   11   12 2
    23   11   13 1
    24   13   17 1
    25   13   14 2
    26   14   15 1
    27   14   42 1
    28   15   16 2
    29   15   19 1
    30   16   17 1
    31   16   43 1
    32   17   18 1
    33   19   23 2
    34   19   20 1
    35   20   25 1
    36   20   21 2
    37   21   44 1
    38   21   22 1
    39   22   23 1
    40   22   24 1
    41   25   30 ar
    42   25   26 ar
    43   26   27 ar
    44   26   45 1
    45   27   28 ar
    46   27   46 1
    47   28   29 ar
    48   28   47 1
    49   29   30 ar
    50   29   31 1
    51   30   48 1
@<TRIPOS>MOLECULE
CHEMBL219988__2
   48    51     0     0     0
SMALL
USER_CHARGES

@<TRIPOS>ATOM
      1 C1          0.8766    0.2537    1.2321 C.ar      1 <0>        -0.1252
      2 C2          2.1041    0.8900    1.2488 C.ar      1 <0>        -0.0880
      3 C3          3.2588    0.1714    1.0047 C.ar      1 <0>        -0.1481
      4 C4          3.1863   -1.1866    0.7433 C.ar      1 <0>         0.1076
      5 C5          1.9567   -1.8226    0.7269 C.ar      1 <0>        -0.1190
      6 C6          0.8030   -1.1017    0.9713 C.ar      1 <0>        -0.0738
      7 C7          1.8761   -3.3002    0.4421 C.3       1 <0>         0.1950
      8 C8          2.0986   -4.0823    1.7382 C.3       1 <0>         0.0675
      9 O1          1.1661   -3.6409    2.7269 O.3       1 <0>        -0.5674
     10 N1          0.5540   -3.6214   -0.1012 N.am      1 <0>        -0.7201
     11 C9          0.3920   -4.7085   -0.8813 C.2       1 <0>         0.5912
     12 O2          1.3438   -5.4232   -1.1343 O.2       1 <0>        -0.5183
     13 C10        -0.9322   -5.0302   -1.4255 C.2       1 <0>        -0.0519
     14 C11        -1.2327   -6.0992   -2.2205 C.2       1 <0>        -0.0559
     15 C12        -2.6110   -6.0254   -2.5114 C.2       1 <0>        -0.1405
     16 C13        -3.1018   -4.9040   -1.8767 C.2       1 <0>         0.0580
     17 N2         -2.0867   -4.3098   -1.2177 N.pl3     1 <0>        -0.5286
     18 H1         -2.1580   -3.5025   -0.6846 H         1 <0>         0.4205
     19 C14        -3.3846   -6.9731   -3.3416 C.2       1 <0>         0.1875
     20 C15        -3.0139   -7.4788   -4.5800 C.2       1 <0>        -0.1954
     21 C16        -4.0417   -8.3404   -5.0041 C.2       1 <0>         0.0723
     22 N3         -4.9729   -8.3581   -4.0883 N.2       1 <0>        -0.2879
     23 N4         -4.5933   -7.5200   -3.0335 N.pl3     1 <0>        -0.4689
     24 H2         -5.1032   -7.3557   -2.2249 H         1 <0>         0.4402
     25 C17        -1.7666   -7.1681   -5.3187 C.ar      1 <0>         0.0165
     26 C18        -1.4341   -5.8446   -5.6049 C.ar      1 <0>        -0.0975
     27 C19        -0.2719   -5.5606   -6.2923 C.ar      1 <0>        -0.1043
     28 C20         0.5635   -6.5860   -6.6977 C.ar      1 <0>        -0.1135
     29 C21         0.2389   -7.9021   -6.4170 C.ar      1 <0>        -0.0305
     30 C22        -0.9192   -8.1975   -5.7245 C.ar      1 <0>        -0.1023
     31 Cl1         1.2923   -9.1829   -6.9304 Cl        1 <0>        -0.0717
     32 F1          4.3145   -1.8902    0.5041 F         1 <0>        -0.1344
     33 H3         -0.0250    0.8154    1.4274 H         1 <0>         0.1320
     34 H4          2.1603    1.9492    1.4523 H         1 <0>         0.1354
     35 H5          4.2174    0.6686    1.0175 H         1 <0>         0.1393
     36 H6         -0.1562   -1.5977    0.9589 H         1 <0>         0.1244
     37 H7          2.6429   -3.5729   -0.2830 H         1 <0>         0.1175
     38 H8          1.9527   -5.1460    1.5503 H         1 <0>         0.0612
     39 H9          3.1144   -3.9124    2.0952 H         1 <0>         0.0601
     40 H10         1.2496   -4.0948    3.5767 H         1 <0>         0.3826
     41 H11        -0.2047   -3.0518    0.1005 H         1 <0>         0.3957
     42 H12        -0.5446   -6.8581   -2.5625 H         1 <0>         0.1542
     43 H13        -4.1260   -4.5622   -1.9000 H         1 <0>         0.1795
     44 H14        -4.0582   -8.8942   -5.9312 H         1 <0>         0.1873
     45 H15        -2.0855   -5.0429   -5.2894 H         1 <0>         0.1241
     46 H16        -0.0140   -4.5357   -6.5145 H         1 <0>         0.1297
     47 H17         1.4722   -6.3589   -7.2354 H         1 <0>         0.1310
     48 H18        -1.1696   -9.2241   -5.5015 H         1 <0>         0.1331
@<TRIPOS>BOND
     1    1    6 ar
     2    1    2 ar
     3    1   33 1
     4    2    3 ar
     5    2   34 1
     6    3    4 ar
     7    3   35 1
     8    4    5 ar
     9    4   32 1
    10    5    6 ar
    11    5    7 1
    12    6   36 1
    13    7    8 1
    14    7   10 1
    15    7   37 1
    16    8    9 1
    17    8   38 1
    18    8   39 1
    19    9   40 1
    20   10   11 am
    21   10   41 1
    22   11   12 2
    23   11   13 1
    24   13   17 1
    25   13   14 2
    26   14   15 1
    27   14   42 1
    28   15   16 2
    29   15   19 1
    30   16   17 1
    31   16   43 1
    32   17   18 1
    33   19   23 1
    34   19   20 2
    35   20   21 1
    36   20   25 1
    37   21   22 2
    38   21   44 1
    39   22   23 1
    40   23   24 1
    41   25   30 ar
    42   25   26 ar
    43   26   27 ar
    44   26   45 1
    45   27   28 ar
    46   27   46 1
    47   28   29 ar
    48   28   47 1
    49   29   30 ar
    50   29   31 1
    51   30   48 1
@<TRIPOS>MOLECULE
CHEMBL219988__3
   48    51     0     0     0
SMALL
USER_CHARGES

@<TRIPOS>ATOM
      1 C1         -0.0167    1.3780    0.0096 C.ar      1 <0>        -0.1251
      2 C2          1.1706    2.0866    0.0021 C.ar      1 <0>        -0.0885
      3 C3          2.3773    1.4137   -0.0131 C.ar      1 <0>        -0.1487
      4 C4          2.3974    0.0291   -0.0207 C.ar      1 <0>         0.1071
      5 C5          1.2080   -0.6793   -0.0132 C.ar      1 <0>        -0.1187
      6 C6          0.0021   -0.0041    0.0020 C.ar      1 <0>        -0.0732
      7 C7          1.2281   -2.1862   -0.0220 C.3       1 <0>         0.1947
      8 C8          1.3746   -2.7026    1.4107 C.3       1 <0>         0.0680
      9 O1          0.3371   -2.1514    2.2242 O.3       1 <0>        -0.5669
     10 N1         -0.0227   -2.6879   -0.5964 N.am      1 <0>        -0.7206
     11 C9         -0.0597   -3.9071   -1.1696 C.2       1 <0>         0.5932
     12 O2          0.9459   -4.5912   -1.2100 O.2       1 <0>        -0.5229
     13 C10        -1.3124   -4.4096   -1.7449 C.2       1 <0>        -0.0570
     14 C11        -1.4901   -5.6233   -2.3478 C.2       1 <0>        -0.0661
     15 C12        -2.8378   -5.6912   -2.7505 C.2       1 <0>        -0.1169
     16 C13        -3.4349   -4.5197   -2.3805 C.2       1 <0>         0.0719
     17 N2         -2.5173   -3.7440   -1.7672 N.pl3     1 <0>        -0.5329
     18 H1         -2.6796   -2.8598   -1.4029 H         1 <0>         0.4192
     19 C14        -3.4897   -6.8270   -3.4491 C.2       1 <0>         0.1757
     20 C15        -4.8292   -7.2560   -3.2752 C.2       1 <0>        -0.2031
     21 C16        -5.0274   -8.3236   -4.0990 C.2       1 <0>         0.0822
     22 N3         -3.8742   -8.5562   -4.7581 N.pl3     1 <0>        -0.4695
     23 N4         -2.9290   -7.6104   -4.3435 N.2       1 <0>        -0.2800
     24 H2         -3.7255   -9.2582   -5.4109 H         1 <0>         0.4446
     25 C17        -5.8321   -6.6536   -2.3628 C.ar      1 <0>         0.0152
     26 C18        -5.5085   -6.4132   -1.0286 C.ar      1 <0>        -0.1003
     27 C19        -6.4446   -5.8522   -0.1839 C.ar      1 <0>        -0.1046
     28 C20        -7.7029   -5.5286   -0.6587 C.ar      1 <0>        -0.1157
     29 C21        -8.0304   -5.7654   -1.9825 C.ar      1 <0>        -0.0319
     30 C22        -7.0987   -6.3209   -2.8381 C.ar      1 <0>        -0.1070
     31 Cl1        -9.6122   -5.3575   -2.5703 Cl        1 <0>        -0.0708
     32 F1          3.5766   -0.6299   -0.0360 F         1 <0>        -0.1349
     33 H3         -0.9594    1.9048    0.0260 H         1 <0>         0.1321
     34 H4          1.1547    3.1665    0.0077 H         1 <0>         0.1351
     35 H5          3.3046    1.9675   -0.0193 H         1 <0>         0.1388
     36 H6         -0.9259   -0.5565    0.0083 H         1 <0>         0.1252
     37 H7          2.0689   -2.5348   -0.6216 H         1 <0>         0.1169
     38 H8          1.3001   -3.7901    1.4144 H         1 <0>         0.0612
     39 H9          2.3449   -2.4036    1.8073 H         1 <0>         0.0593
     40 H10         0.3681   -2.4364    3.1478 H         1 <0>         0.3821
     41 H11        -0.8243   -2.1426   -0.5642 H         1 <0>         0.3962
     42 H12        -0.7386   -6.3859   -2.4893 H         1 <0>         0.1534
     43 H13        -4.4698   -4.2596   -2.5472 H         1 <0>         0.1762
     44 H14        -5.9447   -8.8838   -4.2048 H         1 <0>         0.1813
     45 H15        -4.5267   -6.6659   -0.6563 H         1 <0>         0.1297
     46 H16        -6.1943   -5.6657    0.8500 H         1 <0>         0.1317
     47 H17        -8.4324   -5.0901    0.0060 H         1 <0>         0.1317
     48 H18        -7.3532   -6.5013   -3.8720 H         1 <0>         0.1326
@<TRIPOS>BOND
     1    1    6 ar
     2    1    2 ar
     3    1   33 1
     4    2    3 ar
     5    2   34 1
     6    3    4 ar
     7    3   35 1
     8    4    5 ar
     9    4   32 1
    10    5    6 ar
    11    5    7 1
    12    6   36 1
    13    7    8 1
    14    7   10 1
    15    7   37 1
    16    8    9 1
    17    8   38 1
    18    8   39 1
    19    9   40 1
    20   10   11 am
    21   10   41 1
    22   11   12 2
    23   11   13 1
    24   13   17 1
    25   13   14 2
    26   14   15 1
    27   14   42 1
    28   15   16 2
    29   15   19 1
    30   16   17 1
    31   16   43 1
    32   17   18 1
    33   19   23 2
    34   19   20 1
    35   20   25 1
    36   20   21 2
    37   21   44 1
    38   21   22 1
    39   22   23 1
    40   22   24 1
    41   25   30 ar
    42   25   26 ar
    43   26   27 ar
    44   26   45 1
    45   27   28 ar
    46   27   46 1
    47   28   29 ar
    48   28   47 1
    49   29   30 ar
    50   29   31 1
    51   30   48 1
@<TRIPOS>MOLECULE
CHEMBL219790
   48    51     0     0     0
SMALL
USER_CHARGES

@<TRIPOS>ATOM
      1 C1          0.4585    0.4884    0.9561 C.ar      1 <0>        -0.1053
      2 C2          1.6076    1.2518    1.0011 C.ar      1 <0>        -0.0998
      3 C3          2.4549    1.2978   -0.1049 C.ar      1 <0>         0.0176
      4 C4          2.1363    0.5716   -1.2514 C.ar      1 <0>        -0.1040
      5 C5          0.9840   -0.1888   -1.2854 C.ar      1 <0>        -0.0324
      6 C6          0.1465   -0.2303   -0.1835 C.ar      1 <0>        -0.1156
      7 Cl1         0.5845   -1.0937   -2.7121 Cl        1 <0>        -0.0709
      8 C7          3.6902    2.1165   -0.0621 C.2       1 <0>        -0.2037
      9 C8          4.0508    3.1299   -0.9685 C.2       1 <0>         0.0722
     10 N1          5.2047    3.6215   -0.6039 N.2       1 <0>        -0.2871
     11 N2          5.6429    2.9556    0.5466 N.pl3     1 <0>        -0.4647
     12 H1          6.4701    3.1267    1.0233 H         1 <0>         0.4422
     13 C9          4.7029    2.0294    0.8832 C.2       1 <0>         0.1917
     14 C10         4.7529    1.1045    2.0356 C.2       1 <0>        -0.1449
     15 C11         5.0814    1.4409    3.3654 C.2       1 <0>        -0.0772
     16 C12         5.0056    0.2925    4.1007 C.2       1 <0>        -0.0520
     17 N3          4.6408   -0.7344    3.2595 N.pl3     1 <0>        -0.5280
     18 H2          4.5146   -1.6594    3.5227 H         1 <0>         0.4217
     19 C13         4.4814   -0.2472    2.0125 C.2       1 <0>         0.0830
     20 C14         5.2686    0.1735    5.5394 C.2       1 <0>         0.5933
     21 O1          5.5864    1.1561    6.1831 O.2       1 <0>        -0.5224
     22 N4          5.1581   -1.0240    6.1478 N.am      1 <0>        -0.7200
     23 C15         5.4207   -1.1428    7.5842 C.3       1 <0>         0.1944
     24 C16         6.9218   -1.3287    7.8146 C.3       1 <0>         0.0662
     25 O2          7.3400   -2.5728    7.2497 O.3       1 <0>        -0.5689
     26 C17         4.6770   -2.3326    8.1341 C.ar      1 <0>        -0.0754
     27 C18         4.6145   -3.5053    7.4045 C.ar      1 <0>        -0.0732
     28 C19         3.9330   -4.5979    7.9068 C.ar      1 <0>        -0.1239
     29 C20         3.3125   -4.5188    9.1415 C.ar      1 <0>         0.0734
     30 C21         3.3756   -3.3429    9.8733 C.ar      1 <0>         0.0714
     31 C22         4.0629   -2.2521    9.3697 C.ar      1 <0>        -0.1138
     32 F1          2.7704   -3.2631   11.0785 F         1 <0>        -0.1246
     33 F2          2.6458   -5.5861    9.6329 F         1 <0>        -0.1254
     34 H3         -0.1960    0.4488    1.8142 H         1 <0>         0.1306
     35 H4          1.8497    1.8128    1.8916 H         1 <0>         0.1270
     36 H5          2.7889    0.6038   -2.1113 H         1 <0>         0.1339
     37 H6         -0.7536   -0.8264   -0.2139 H         1 <0>         0.1311
     38 H7          3.4713    3.4477   -1.8226 H         1 <0>         0.1869
     39 H8          5.3438    2.4220    3.7330 H         1 <0>         0.1533
     40 H9          4.1925   -0.8188    1.1429 H         1 <0>         0.1807
     41 H10         4.9048   -1.8072    5.6347 H         1 <0>         0.3974
     42 H11         5.0845   -0.2383    8.0910 H         1 <0>         0.1185
     43 H12         7.4661   -0.5126    7.3394 H         1 <0>         0.0616
     44 H13         7.1279   -1.3281    8.8850 H         1 <0>         0.0618
     45 H14         8.2829   -2.7572    7.3588 H         1 <0>         0.3844
     46 H15         5.0984   -3.5677    6.4410 H         1 <0>         0.1400
     47 H16         3.8843   -5.5132    7.3356 H         1 <0>         0.1493
     48 H17         4.1160   -1.3368    9.9405 H         1 <0>         0.1498
@<TRIPOS>BOND
     1    1    6 ar
     2    1    2 ar
     3    1   34 1
     4    2    3 ar
     5    2   35 1
     6    3    4 ar
     7    3    8 1
     8    4    5 ar
     9    4   36 1
    10    5    6 ar
    11    5    7 1
    12    6   37 1
    13    8   13 2
    14    8    9 1
    15    9   10 2
    16    9   38 1
    17   10   11 1
    18   11   12 1
    19   11   13 1
    20   13   14 1
    21   14   19 2
    22   14   15 1
    23   15   16 2
    24   15   39 1
    25   16   17 1
    26   16   20 1
    27   17   18 1
    28   17   19 1
    29   19   40 1
    30   20   21 2
    31   20   22 am
    32   22   23 1
    33   22   41 1
    34   23   24 1
    35   23   26 1
    36   23   42 1
    37   24   25 1
    38   24   43 1
    39   24   44 1
    40   25   45 1
    41   26   31 ar
    42   26   27 ar
    43   27   28 ar
    44   27   46 1
    45   28   29 ar
    46   28   47 1
    47   29   30 ar
    48   29   33 1
    49   30   31 ar
    50   30   32 1
    51   31   48 1
@<TRIPOS>MOLECULE
CHEMBL219790__1
   48    51     0     0     0
SMALL
USER_CHARGES

@<TRIPOS>ATOM
      1 C1         -0.0167    1.3786    0.0096 C.ar      1 <0>        -0.1038
      2 C2          1.1676    2.0878    0.0021 C.ar      1 <0>        -0.1106
      3 C3          2.3840    1.4085   -0.0131 C.ar      1 <0>         0.0145
      4 C4          2.3983    0.0151   -0.0207 C.ar      1 <0>        -0.0966
      5 C5          1.2076   -0.6849   -0.0131 C.ar      1 <0>        -0.0326
      6 C6          0.0021   -0.0041    0.0020 C.ar      1 <0>        -0.1163
      7 Cl1         1.2227   -2.4208   -0.0230 Cl        1 <0>        -0.0706
      8 C7          3.6597    2.1660   -0.0217 C.2       1 <0>        -0.2031
      9 C8          3.9817    3.1931   -0.8578 C.2       1 <0>         0.0825
     10 N1          5.2257    3.6075   -0.5427 N.pl3     1 <0>        -0.4697
     11 N2          5.6983    2.8234    0.5164 N.2       1 <0>        -0.2801
     12 H1          5.7109    4.3266   -0.9767 H         1 <0>         0.4446
     13 C9          4.7639    1.9580    0.8421 C.2       1 <0>         0.1752
     14 C10         4.8515    0.9411    1.9196 C.2       1 <0>        -0.1177
     15 C11         6.0090    0.2429    2.3146 C.2       1 <0>        -0.0657
     16 C12         5.6459   -0.5903    3.3354 C.2       1 <0>        -0.0578
     17 N3          4.3004   -0.4148    3.5685 N.pl3     1 <0>        -0.5320
     18 H2          3.7794   -0.8811    4.2408 H         1 <0>         0.4195
     19 C13         3.8255    0.5150    2.7144 C.2       1 <0>         0.0729
     20 C14         6.5335   -1.5100    4.0557 C.2       1 <0>         0.5951
     21 O1          7.7114   -1.5775    3.7574 O.2       1 <0>        -0.5234
     22 N4          6.0445   -2.2801    5.0478 N.am      1 <0>        -0.7212
     23 C15         6.9308   -3.1985    5.7669 C.3       1 <0>         0.1942
     24 C16         7.0358   -4.5153    4.9950 C.3       1 <0>         0.0663
     25 O2          5.7601   -5.1589    4.9753 O.3       1 <0>        -0.5684
     26 C17         6.3708   -3.4647    7.1405 C.ar      1 <0>        -0.0741
     27 C18         5.0097   -3.6389    7.3094 C.ar      1 <0>        -0.0729
     28 C19         4.4937   -3.8831    8.5681 C.ar      1 <0>        -0.1241
     29 C20         5.3399   -3.9540    9.6612 C.ar      1 <0>         0.0723
     30 C21         6.7050   -3.7798    9.4917 C.ar      1 <0>         0.0708
     31 C22         7.2190   -3.5401    8.2291 C.ar      1 <0>        -0.1140
     32 F1          7.5328   -3.8481   10.5571 F         1 <0>        -0.1252
     33 F2          4.8363   -4.1923   10.8919 F         1 <0>        -0.1261
     34 H3         -0.9598    1.9047    0.0260 H         1 <0>         0.1327
     35 H4          1.1513    3.1677    0.0077 H         1 <0>         0.1287
     36 H5          3.3383   -0.5164   -0.0328 H         1 <0>         0.1337
     37 H6         -0.9269   -0.5549    0.0079 H         1 <0>         0.1317
     38 H7          3.3526    3.6020   -1.6347 H         1 <0>         0.1815
     39 H8          6.9969    0.3459    1.8906 H         1 <0>         0.1533
     40 H9          2.8041    0.8626    2.6654 H         1 <0>         0.1754
     41 H10         5.1056   -2.2264    5.2856 H         1 <0>         0.3971
     42 H11         7.9206   -2.7511    5.8585 H         1 <0>         0.1181
     43 H12         7.3564   -4.3128    3.9731 H         1 <0>         0.0621
     44 H13         7.7630   -5.1650    5.4820 H         1 <0>         0.0608
     45 H14         5.7521   -6.0018    4.5014 H         1 <0>         0.3838
     46 H15         4.3489   -3.5836    6.4569 H         1 <0>         0.1406
     47 H16         3.4302   -4.0183    8.6989 H         1 <0>         0.1489
     48 H17         8.2825   -3.4080    8.0952 H         1 <0>         0.1497
@<TRIPOS>BOND
     1    1    6 ar
     2    1    2 ar
     3    1   34 1
     4    2    3 ar
     5    2   35 1
     6    3    4 ar
     7    3    8 1
     8    4    5 ar
     9    4   36 1
    10    5    6 ar
    11    5    7 1
    12    6   37 1
    13    8   13 1
    14    8    9 2
    15    9   38 1
    16    9   10 1
    17   10   11 1
    18   10   12 1
    19   11   13 2
    20   13   14 1
    21   14   19 2
    22   14   15 1
    23   15   16 2
    24   15   39 1
    25   16   17 1
    26   16   20 1
    27   17   18 1
    28   17   19 1
    29   19   40 1
    30   20   21 2
    31   20   22 am
    32   22   23 1
    33   22   41 1
    34   23   24 1
    35   23   26 1
    36   23   42 1
    37   24   25 1
    38   24   43 1
    39   24   44 1
    40   25   45 1
    41   26   31 ar
    42   26   27 ar
    43   27   28 ar
    44   27   46 1
    45   28   29 ar
    46   28   47 1
    47   29   30 ar
    48   29   33 1
    49   30   31 ar
    50   30   32 1
    51   31   48 1
@<TRIPOS>MOLECULE
CHEMBL219790__2
   48    51     0     0     0
SMALL
USER_CHARGES

@<TRIPOS>ATOM
      1 C1          0.4585    0.4884    0.9561 C.ar      1 <0>        -0.1053
      2 C2          1.6076    1.2518    1.0011 C.ar      1 <0>        -0.0998
      3 C3          2.4549    1.2978   -0.1049 C.ar      1 <0>         0.0178
      4 C4          2.1363    0.5716   -1.2514 C.ar      1 <0>        -0.1040
      5 C5          0.9840   -0.1888   -1.2854 C.ar      1 <0>        -0.0323
      6 C6          0.1465   -0.2303   -0.1835 C.ar      1 <0>        -0.1157
      7 Cl1         0.5845   -1.0937   -2.7121 Cl        1 <0>        -0.0709
      8 C7          3.6902    2.1165   -0.0621 C.2       1 <0>        -0.2039
      9 C8          4.0508    3.1299   -0.9685 C.2       1 <0>         0.0722
     10 N1          5.2047    3.6215   -0.6039 N.2       1 <0>        -0.2870
     11 N2          5.6429    2.9556    0.5466 N.pl3     1 <0>        -0.4647
     12 H1          6.4701    3.1267    1.0233 H         1 <0>         0.4423
     13 C9          4.7029    2.0294    0.8832 C.2       1 <0>         0.1918
     14 C10         4.7529    1.1045    2.0356 C.2       1 <0>        -0.1449
     15 C11         5.0814    1.4409    3.3654 C.2       1 <0>        -0.0772
     16 C12         5.0056    0.2925    4.1007 C.2       1 <0>        -0.0520
     17 N3          4.6408   -0.7344    3.2595 N.pl3     1 <0>        -0.5281
     18 H2          4.5146   -1.6594    3.5227 H         1 <0>         0.4216
     19 C13         4.4814   -0.2472    2.0125 C.2       1 <0>         0.0830
     20 C14         5.2686    0.1735    5.5394 C.2       1 <0>         0.5933
     21 O1          5.5864    1.1561    6.1831 O.2       1 <0>        -0.5224
     22 N4          5.1581   -1.0240    6.1478 N.am      1 <0>        -0.7201
     23 C15         5.4207   -1.1428    7.5842 C.3       1 <0>         0.1943
     24 C16         4.1522   -0.7935    8.3651 C.3       1 <0>         0.0664
     25 O2          3.1386   -1.7610    8.0848 O.3       1 <0>        -0.5687
     26 C17         5.8343   -2.5562    7.9041 C.ar      1 <0>        -0.0751
     27 C18         5.2054   -3.6177    7.2801 C.ar      1 <0>        -0.0735
     28 C19         5.5829   -4.9149    7.5718 C.ar      1 <0>        -0.1237
     29 C20         6.5919   -5.1523    8.4891 C.ar      1 <0>         0.0732
     30 C21         7.2228   -4.0878    9.1145 C.ar      1 <0>         0.0715
     31 C22         6.8457   -2.7898    8.8166 C.ar      1 <0>        -0.1140
     32 F1          8.2076   -4.3172   10.0105 F         1 <0>        -0.1246
     33 F2          6.9612   -6.4200    8.7751 F         1 <0>        -0.1254
     34 H3         -0.1960    0.4488    1.8142 H         1 <0>         0.1305
     35 H4          1.8497    1.8128    1.8916 H         1 <0>         0.1269
     36 H5          2.7889    0.6038   -2.1113 H         1 <0>         0.1338
     37 H6         -0.7536   -0.8264   -0.2139 H         1 <0>         0.1311
     38 H7          3.4713    3.4477   -1.8226 H         1 <0>         0.1869
     39 H8          5.3438    2.4220    3.7330 H         1 <0>         0.1533
     40 H9          4.1925   -0.8188    1.1429 H         1 <0>         0.1807
     41 H10         4.9048   -1.8072    5.6347 H         1 <0>         0.3973
     42 H11         6.2206   -0.4578    7.8652 H         1 <0>         0.1184
     43 H12         4.3709   -0.7953    9.4330 H         1 <0>         0.0617
     44 H13         3.8030    0.1952    8.0675 H         1 <0>         0.0619
     45 H14         2.3044   -1.6019    8.5471 H         1 <0>         0.3844
     46 H15         4.4181   -3.4331    6.5643 H         1 <0>         0.1398
     47 H16         5.0904   -5.7432    7.0842 H         1 <0>         0.1493
     48 H17         7.3390   -1.9596    9.3002 H         1 <0>         0.1498
@<TRIPOS>BOND
     1    1    6 ar
     2    1    2 ar
     3    1   34 1
     4    2    3 ar
     5    2   35 1
     6    3    4 ar
     7    3    8 1
     8    4    5 ar
     9    4   36 1
    10    5    6 ar
    11    5    7 1
    12    6   37 1
    13    8   13 2
    14    8    9 1
    15    9   10 2
    16    9   38 1
    17   10   11 1
    18   11   12 1
    19   11   13 1
    20   13   14 1
    21   14   19 2
    22   14   15 1
    23   15   16 2
    24   15   39 1
    25   16   17 1
    26   16   20 1
    27   17   18 1
    28   17   19 1
    29   19   40 1
    30   20   21 2
    31   20   22 am
    32   22   23 1
    33   22   41 1
    34   23   24 1
    35   23   26 1
    36   23   42 1
    37   24   25 1
    38   24   43 1
    39   24   44 1
    40   25   45 1
    41   26   31 ar
    42   26   27 ar
    43   27   28 ar
    44   27   46 1
    45   28   29 ar
    46   28   47 1
    47   29   30 ar
    48   29   33 1
    49   30   31 ar
    50   30   32 1
    51   31   48 1
@<TRIPOS>MOLECULE
CHEMBL219790__3
   48    51     0     0     0
SMALL
USER_CHARGES

@<TRIPOS>ATOM
      1 C1         -0.0167    1.3786    0.0096 C.ar      1 <0>        -0.1038
      2 C2          1.1676    2.0878    0.0021 C.ar      1 <0>        -0.1106
      3 C3          2.3840    1.4085   -0.0131 C.ar      1 <0>         0.0144
      4 C4          2.3983    0.0151   -0.0207 C.ar      1 <0>        -0.0966
      5 C5          1.2076   -0.6849   -0.0131 C.ar      1 <0>        -0.0327
      6 C6          0.0021   -0.0041    0.0020 C.ar      1 <0>        -0.1162
      7 Cl1         1.2227   -2.4208   -0.0230 Cl        1 <0>        -0.0704
      8 C7          3.6597    2.1660   -0.0217 C.2       1 <0>        -0.2029
      9 C8          3.9817    3.1931   -0.8578 C.2       1 <0>         0.0825
     10 N1          5.2257    3.6075   -0.5427 N.pl3     1 <0>        -0.4698
     11 N2          5.6983    2.8234    0.5164 N.2       1 <0>        -0.2802
     12 H1          5.7109    4.3266   -0.9767 H         1 <0>         0.4445
     13 C9          4.7639    1.9580    0.8421 C.2       1 <0>         0.1752
     14 C10         4.8515    0.9411    1.9196 C.2       1 <0>        -0.1177
     15 C11         6.0090    0.2429    2.3146 C.2       1 <0>        -0.0657
     16 C12         5.6459   -0.5903    3.3354 C.2       1 <0>        -0.0578
     17 N3          4.3004   -0.4148    3.5685 N.pl3     1 <0>        -0.5321
     18 H2          3.7794   -0.8811    4.2408 H         1 <0>         0.4195
     19 C13         3.8255    0.5150    2.7144 C.2       1 <0>         0.0729
     20 C14         6.5335   -1.5100    4.0557 C.2       1 <0>         0.5951
     21 O1          7.7114   -1.5775    3.7574 O.2       1 <0>        -0.5234
     22 N4          6.0445   -2.2801    5.0478 N.am      1 <0>        -0.7213
     23 C15         6.9308   -3.1985    5.7669 C.3       1 <0>         0.1942
     24 C16         7.6362   -2.4462    6.8972 C.3       1 <0>         0.0663
     25 O2          6.6708   -2.0202    7.8608 O.3       1 <0>        -0.5687
     26 C17         6.1199   -4.3293    6.3456 C.ar      1 <0>        -0.0738
     27 C18         4.8783   -4.0762    6.8986 C.ar      1 <0>        -0.0731
     28 C19         4.1328   -5.1116    7.4300 C.ar      1 <0>        -0.1238
     29 C20         4.6288   -6.4036    7.4084 C.ar      1 <0>         0.0724
     30 C21         5.8737   -6.6575    6.8535 C.ar      1 <0>         0.0710
     31 C22         6.6158   -5.6191    6.3178 C.ar      1 <0>        -0.1141
     32 F1          6.3602   -7.9177    6.8317 F         1 <0>        -0.1252
     33 F2          3.9008   -7.4162    7.9280 F         1 <0>        -0.1261
     34 H3         -0.9598    1.9047    0.0260 H         1 <0>         0.1327
     35 H4          1.1513    3.1677    0.0077 H         1 <0>         0.1287
     36 H5          3.3383   -0.5164   -0.0328 H         1 <0>         0.1338
     37 H6         -0.9269   -0.5549    0.0079 H         1 <0>         0.1317
     38 H7          3.3526    3.6020   -1.6347 H         1 <0>         0.1815
     39 H8          6.9969    0.3459    1.8906 H         1 <0>         0.1533
     40 H9          2.8041    0.8626    2.6654 H         1 <0>         0.1754
     41 H10         5.1056   -2.2264    5.2856 H         1 <0>         0.3971
     42 H11         7.6743   -3.5999    5.0783 H         1 <0>         0.1182
     43 H12         8.3607   -3.1052    7.3756 H         1 <0>         0.0609
     44 H13         8.1505   -1.5762    6.4890 H         1 <0>         0.0622
     45 H14         7.0481   -1.5353    8.6076 H         1 <0>         0.3837
     46 H15         4.4907   -3.0683    6.9157 H         1 <0>         0.1401
     47 H16         3.1633   -4.9125    7.8623 H         1 <0>         0.1490
     48 H17         7.5841   -5.8161    5.8819 H         1 <0>         0.1497
@<TRIPOS>BOND
     1    1    6 ar
     2    1    2 ar
     3    1   34 1
     4    2    3 ar
     5    2   35 1
     6    3    4 ar
     7    3    8 1
     8    4    5 ar
     9    4   36 1
    10    5    6 ar
    11    5    7 1
    12    6   37 1
    13    8   13 1
    14    8    9 2
    15    9   38 1
    16    9   10 1
    17   10   11 1
    18   10   12 1
    19   11   13 2
    20   13   14 1
    21   14   19 2
    22   14   15 1
    23   15   16 2
    24   15   39 1
    25   16   17 1
    26   16   20 1
    27   17   18 1
    28   17   19 1
    29   19   40 1
    30   20   21 2
    31   20   22 am
    32   22   23 1
    33   22   41 1
    34   23   24 1
    35   23   26 1
    36   23   42 1
    37   24   25 1
    38   24   43 1
    39   24   44 1
    40   25   45 1
    41   26   31 ar
    42   26   27 ar
    43   27   28 ar
    44   27   46 1
    45   28   29 ar
    46   28   47 1
    47   29   30 ar
    48   29   33 1
    49   30   31 ar
    50   30   32 1
    51   31   48 1
@<TRIPOS>MOLECULE
CHEMBL375621
   48    52     0     0     0
SMALL
USER_CHARGES

@<TRIPOS>ATOM
      1 C1         -0.7968   -0.0730    2.2067 C.ar      1 <0>        -0.1121
      2 C2          0.1839    0.8869    2.3760 C.ar      1 <0>        -0.1187
      3 C3          1.4671    0.6388    1.9342 C.ar      1 <0>        -0.1127
      4 C4          1.7816   -0.5683    1.3247 C.ar      1 <0>        -0.1017
      5 C5          0.8086   -1.5288    1.1642 C.ar      1 <0>        -0.0642
      6 C6         -0.4850   -1.2732    1.6032 C.ar      1 <0>        -0.1178
      7 C7          1.0816   -2.8722    0.5405 C.3       1 <0>        -0.0997
      8 C8          2.3545   -2.8316   -0.3035 C.3       1 <0>         0.1141
      9 N1          3.4054   -2.1765    0.4926 N.am      1 <0>        -0.6150
     10 C9          3.1996   -0.7694    0.8521 C.3       1 <0>         0.1345
     11 C10         4.5125   -2.8430    0.8757 C.2       1 <0>         0.5958
     12 O1          4.6043   -4.0389    0.6703 O.2       1 <0>        -0.5155
     13 C11         5.6070   -2.1266    1.5404 C.2       1 <0>        -0.0497
     14 C12         6.5969   -2.6951    2.2901 C.2       1 <0>        -0.0577
     15 C13         7.4318   -1.6495    2.7363 C.2       1 <0>        -0.1381
     16 C14         6.9139   -0.4732    2.2369 C.2       1 <0>         0.0519
     17 N2          5.8162   -0.7662    1.5110 N.pl3     1 <0>        -0.5340
     18 H1          5.2613   -0.1216    1.0447 H         1 <0>         0.4235
     19 C15         8.6370   -1.7886    3.5814 C.2       1 <0>         0.1877
     20 C16         8.7518   -2.5495    4.7366 C.2       1 <0>        -0.1959
     21 C17        10.0661   -2.3915    5.2121 C.2       1 <0>         0.0723
     22 N3         10.7067   -1.5907    4.4031 N.2       1 <0>        -0.2877
     23 N4          9.8466   -1.1993    3.3707 N.pl3     1 <0>        -0.4684
     24 H2         10.0721   -0.6093    2.6345 H         1 <0>         0.4404
     25 C18         7.6867   -3.3750    5.3549 C.ar      1 <0>         0.0172
     26 C19         6.4618   -2.7996    5.6908 C.ar      1 <0>        -0.0977
     27 C20         5.4736   -3.5723    6.2656 C.ar      1 <0>        -0.1049
     28 C21         5.6958   -4.9159    6.5090 C.ar      1 <0>        -0.1142
     29 C22         6.9098   -5.4930    6.1782 C.ar      1 <0>        -0.0306
     30 C23         7.9041   -4.7301    5.5971 C.ar      1 <0>        -0.1022
     31 Cl1         7.1807   -7.1795    6.4881 Cl        1 <0>        -0.0713
     32 H3         -1.8033    0.1150    2.5503 H         1 <0>         0.1253
     33 H4         -0.0536    1.8269    2.8517 H         1 <0>         0.1259
     34 H5          2.2328    1.3895    2.0632 H         1 <0>         0.1226
     35 H6         -1.2528   -2.0211    1.4708 H         1 <0>         0.1246
     36 H7          1.1976   -3.6163    1.3285 H         1 <0>         0.0849
     37 H8          0.2398   -3.1508   -0.0935 H         1 <0>         0.0904
     38 H9          2.6619   -3.8464   -0.5561 H         1 <0>         0.1033
     39 H10         2.1741   -2.2625   -1.2155 H         1 <0>         0.0778
     40 H11         3.3839   -0.1415   -0.0196 H         1 <0>         0.0836
     41 H12         3.8901   -0.4939    1.6492 H         1 <0>         0.0963
     42 H13         6.7176   -3.7473    2.5017 H         1 <0>         0.1535
     43 H14         7.3207    0.5144    2.3967 H         1 <0>         0.1795
     44 H15        10.4767   -2.8545    6.0972 H         1 <0>         0.1872
     45 H16         6.2869   -1.7508    5.5018 H         1 <0>         0.1241
     46 H17         4.5248   -3.1272    6.5263 H         1 <0>         0.1293
     47 H18         4.9193   -5.5167    6.9590 H         1 <0>         0.1308
     48 H19         8.8493   -5.1820    5.3348 H         1 <0>         0.1334
@<TRIPOS>BOND
     1    1    6 ar
     2    1    2 ar
     3    1   32 1
     4    2    3 ar
     5    2   33 1
     6    3    4 ar
     7    3   34 1
     8    4   10 1
     9    4    5 ar
    10    5    6 ar
    11    5    7 1
    12    6   35 1
    13    7    8 1
    14    7   36 1
    15    7   37 1
    16    8    9 1
    17    8   38 1
    18    8   39 1
    19    9   10 1
    20    9   11 am
    21   10   40 1
    22   10   41 1
    23   11   12 2
    24   11   13 1
    25   13   17 1
    26   13   14 2
    27   14   15 1
    28   14   42 1
    29   15   16 2
    30   15   19 1
    31   16   17 1
    32   16   43 1
    33   17   18 1
    34   19   23 1
    35   19   20 2
    36   20   21 1
    37   20   25 1
    38   21   22 2
    39   21   44 1
    40   22   23 1
    41   23   24 1
    42   25   30 ar
    43   25   26 ar
    44   26   27 ar
    45   26   45 1
    46   27   28 ar
    47   27   46 1
    48   28   29 ar
    49   28   47 1
    50   29   30 ar
    51   29   31 1
    52   30   48 1
@<TRIPOS>MOLECULE
CHEMBL375621__1
   48    52     0     0     0
SMALL
USER_CHARGES

@<TRIPOS>ATOM
      1 C1         -0.6806    0.4921    2.1873 C.ar      1 <0>        -0.1129
      2 C2          0.3691    1.3892    2.2568 C.ar      1 <0>        -0.1189
      3 C3          1.6226    1.0100    1.8230 C.ar      1 <0>        -0.1125
      4 C4          1.8384   -0.2663    1.3209 C.ar      1 <0>        -0.1009
      5 C5          0.7964   -1.1639    1.2600 C.ar      1 <0>        -0.0651
      6 C6         -0.4670   -0.7766    1.6905 C.ar      1 <0>        -0.1184
      7 C7          0.9608   -2.5738    0.7567 C.3       1 <0>        -0.0996
      8 C8          2.2169   -2.7013   -0.1037 C.3       1 <0>         0.1143
      9 N1          3.3270   -2.0562    0.6167 N.am      1 <0>        -0.6156
     10 C9          3.2291   -0.6114    0.8504 C.3       1 <0>         0.1340
     11 C10         4.3907   -2.7648    1.0443 C.2       1 <0>         0.5976
     12 O1          4.3933   -3.9777    0.9457 O.2       1 <0>        -0.5195
     13 C11         5.5456   -2.0738    1.6286 C.2       1 <0>        -0.0549
     14 C12         6.5113   -2.6427    2.4108 C.2       1 <0>        -0.0679
     15 C13         7.4222   -1.6234    2.7495 C.2       1 <0>        -0.1144
     16 C14         6.9822   -0.4704    2.1639 C.2       1 <0>         0.0657
     17 N2          5.8507   -0.7395    1.4805 N.pl3     1 <0>        -0.5384
     18 H1          5.3344   -0.0966    0.9696 H         1 <0>         0.4222
     19 C15         8.6368   -1.7742    3.5890 C.2       1 <0>         0.1756
     20 C16         9.8607   -1.0801    3.4187 C.2       1 <0>        -0.2027
     21 C17        10.7123   -1.5064    4.3938 C.2       1 <0>         0.0822
     22 N3         10.0605   -2.4211    5.1402 N.pl3     1 <0>        -0.4696
     23 N4          8.7669   -2.5710    4.6264 N.2       1 <0>        -0.2803
     24 H2         10.4253   -2.8931    5.9052 H         1 <0>         0.4445
     25 C18        10.1603   -0.0739    2.3703 C.ar      1 <0>         0.0152
     26 C19         9.8840   -0.3537    1.0332 C.ar      1 <0>        -0.1002
     27 C20        10.1641    0.5855    0.0617 C.ar      1 <0>        -0.1047
     28 C21        10.7186    1.8033    0.4124 C.ar      1 <0>        -0.1157
     29 C22        10.9957    2.0869    1.7386 C.ar      1 <0>        -0.0321
     30 C23        10.7135    1.1560    2.7197 C.ar      1 <0>        -0.1070
     31 Cl1        11.6927    3.6170    2.1704 Cl        1 <0>        -0.0708
     32 H3         -1.6644    0.7826    2.5252 H         1 <0>         0.1248
     33 H4          0.2085    2.3826    2.6487 H         1 <0>         0.1257
     34 H5          2.4423    1.7114    1.8740 H         1 <0>         0.1233
     35 H6         -1.2886   -1.4754    1.6360 H         1 <0>         0.1242
     36 H7          1.0384   -3.2512    1.6070 H         1 <0>         0.0844
     37 H8          0.0893   -2.8457    0.1611 H         1 <0>         0.0899
     38 H9          2.4462   -3.7543   -0.2675 H         1 <0>         0.1028
     39 H10         2.0602   -2.2042   -1.0609 H         1 <0>         0.0775
     40 H11         3.4409   -0.0788   -0.0767 H         1 <0>         0.0841
     41 H12         3.9526   -0.3171    1.6106 H         1 <0>         0.0977
     42 H13         6.5654   -3.6782    2.7126 H         1 <0>         0.1527
     43 H14         7.4624    0.4945    2.2328 H         1 <0>         0.1762
     44 H15        11.7283   -1.1715    4.5421 H         1 <0>         0.1813
     45 H16         9.4517   -1.3043    0.7577 H         1 <0>         0.1300
     46 H17         9.9502    0.3693   -0.9746 H         1 <0>         0.1318
     47 H18        10.9364    2.5352   -0.3513 H         1 <0>         0.1317
     48 H19        10.9258    1.3794    3.7548 H         1 <0>         0.1325
@<TRIPOS>BOND
     1    1    6 ar
     2    1    2 ar
     3    1   32 1
     4    2    3 ar
     5    2   33 1
     6    3    4 ar
     7    3   34 1
     8    4   10 1
     9    4    5 ar
    10    5    6 ar
    11    5    7 1
    12    6   35 1
    13    7    8 1
    14    7   36 1
    15    7   37 1
    16    8    9 1
    17    8   38 1
    18    8   39 1
    19    9   10 1
    20    9   11 am
    21   10   40 1
    22   10   41 1
    23   11   12 2
    24   11   13 1
    25   13   17 1
    26   13   14 2
    27   14   15 1
    28   14   42 1
    29   15   16 2
    30   15   19 1
    31   16   17 1
    32   16   43 1
    33   17   18 1
    34   19   23 2
    35   19   20 1
    36   20   25 1
    37   20   21 2
    38   21   44 1
    39   21   22 1
    40   22   23 1
    41   22   24 1
    42   25   30 ar
    43   25   26 ar
    44   26   27 ar
    45   26   45 1
    46   27   28 ar
    47   27   46 1
    48   28   29 ar
    49   28   47 1
    50   29   30 ar
    51   29   31 1
    52   30   48 1
@<TRIPOS>MOLECULE
CHEMBL222465
   51    54     0     0     0
SMALL
USER_CHARGES

@<TRIPOS>ATOM
      1 C1          0.4585    0.4884    0.9561 C.ar      1 <0>        -0.1053
      2 C2          1.6076    1.2518    1.0011 C.ar      1 <0>        -0.0999
      3 C3          2.4549    1.2978   -0.1049 C.ar      1 <0>         0.0176
      4 C4          2.1363    0.5716   -1.2514 C.ar      1 <0>        -0.1040
      5 C5          0.9840   -0.1888   -1.2854 C.ar      1 <0>        -0.0323
      6 C6          0.1465   -0.2303   -0.1835 C.ar      1 <0>        -0.1156
      7 Cl1         0.5845   -1.0937   -2.7121 Cl        1 <0>        -0.0709
      8 C7          3.6902    2.1165   -0.0621 C.2       1 <0>        -0.2038
      9 C8          4.0508    3.1299   -0.9685 C.2       1 <0>         0.0723
     10 N1          5.2047    3.6215   -0.6039 N.2       1 <0>        -0.2871
     11 N2          5.6429    2.9556    0.5466 N.pl3     1 <0>        -0.4648
     12 H1          6.4701    3.1267    1.0233 H         1 <0>         0.4422
     13 C9          4.7029    2.0294    0.8832 C.2       1 <0>         0.1919
     14 C10         4.7529    1.1045    2.0356 C.2       1 <0>        -0.1450
     15 C11         5.0814    1.4409    3.3654 C.2       1 <0>        -0.0773
     16 C12         5.0056    0.2925    4.1007 C.2       1 <0>        -0.0521
     17 N3          4.6408   -0.7344    3.2595 N.pl3     1 <0>        -0.5281
     18 H2          4.5146   -1.6594    3.5227 H         1 <0>         0.4217
     19 C13         4.4814   -0.2472    2.0125 C.2       1 <0>         0.0831
     20 C14         5.2686    0.1735    5.5394 C.2       1 <0>         0.5931
     21 O1          5.5864    1.1561    6.1831 O.2       1 <0>        -0.5231
     22 N4          5.1581   -1.0240    6.1478 N.am      1 <0>        -0.7199
     23 C15         5.4207   -1.1428    7.5842 C.3       1 <0>         0.1893
     24 C16         6.9218   -1.3287    7.8146 C.3       1 <0>         0.0666
     25 O2          7.3400   -2.5728    7.2497 O.3       1 <0>        -0.5684
     26 C17         4.6770   -2.3326    8.1341 C.ar      1 <0>        -0.0608
     27 C18         4.6140   -3.5055    7.4053 C.ar      1 <0>        -0.0932
     28 C19         3.9318   -4.5969    7.9096 C.ar      1 <0>        -0.0692
     29 C20         3.3130   -4.5155    9.1431 C.ar      1 <0>        -0.1780
     30 C21         3.3767   -3.3429    9.8723 C.ar      1 <0>        -0.0672
     31 C22         4.0626   -2.2529    9.3698 C.ar      1 <0>        -0.1079
     32 C23         2.5684   -5.7049    9.6925 C.3       1 <0>         0.5074
     33 F1          3.4433   -6.4959   10.4449 F         1 <0>        -0.1751
     34 F2          1.5207   -5.2634   10.5077 F         1 <0>        -0.1758
     35 F3          2.0500   -6.4598    8.6348 F         1 <0>        -0.1763
     36 H3         -0.1960    0.4488    1.8142 H         1 <0>         0.1306
     37 H4          1.8497    1.8128    1.8916 H         1 <0>         0.1269
     38 H5          2.7889    0.6038   -2.1113 H         1 <0>         0.1339
     39 H6         -0.7536   -0.8264   -0.2139 H         1 <0>         0.1311
     40 H7          3.4713    3.4477   -1.8226 H         1 <0>         0.1870
     41 H8          5.3438    2.4220    3.7330 H         1 <0>         0.1533
     42 H9          4.1925   -0.8188    1.1429 H         1 <0>         0.1807
     43 H10         4.9048   -1.8072    5.6347 H         1 <0>         0.3974
     44 H11         5.0845   -0.2383    8.0910 H         1 <0>         0.1179
     45 H12         7.4661   -0.5126    7.3394 H         1 <0>         0.0609
     46 H13         7.1279   -1.3281    8.8850 H         1 <0>         0.0613
     47 H14         8.2829   -2.7572    7.3588 H         1 <0>         0.3840
     48 H15         5.0974   -3.5691    6.4416 H         1 <0>         0.1341
     49 H16         3.8820   -5.5130    7.3399 H         1 <0>         0.1381
     50 H17         2.8930   -3.2792   10.8358 H         1 <0>         0.1399
     51 H18         4.1155   -1.3379    9.9412 H         1 <0>         0.1388
@<TRIPOS>BOND
     1    1    6 ar
     2    1    2 ar
     3    1   36 1
     4    2    3 ar
     5    2   37 1
     6    3    4 ar
     7    3    8 1
     8    4    5 ar
     9    4   38 1
    10    5    6 ar
    11    5    7 1
    12    6   39 1
    13    8   13 2
    14    8    9 1
    15    9   10 2
    16    9   40 1
    17   10   11 1
    18   11   12 1
    19   11   13 1
    20   13   14 1
    21   14   19 2
    22   14   15 1
    23   15   16 2
    24   15   41 1
    25   16   17 1
    26   16   20 1
    27   17   18 1
    28   17   19 1
    29   19   42 1
    30   20   21 2
    31   20   22 am
    32   22   23 1
    33   22   43 1
    34   23   24 1
    35   23   26 1
    36   23   44 1
    37   24   25 1
    38   24   45 1
    39   24   46 1
    40   25   47 1
    41   26   31 ar
    42   26   27 ar
    43   27   28 ar
    44   27   48 1
    45   28   29 ar
    46   28   49 1
    47   29   30 ar
    48   29   32 1
    49   30   31 ar
    50   30   50 1
    51   31   51 1
    52   32   33 1
    53   32   34 1
    54   32   35 1
@<TRIPOS>MOLECULE
CHEMBL222465__1
   51    54     0     0     0
SMALL
USER_CHARGES

@<TRIPOS>ATOM
      1 C1         -0.0167    1.3786    0.0096 C.ar      1 <0>        -0.1038
      2 C2          1.1676    2.0878    0.0021 C.ar      1 <0>        -0.1106
      3 C3          2.3840    1.4085   -0.0131 C.ar      1 <0>         0.0144
      4 C4          2.3983    0.0151   -0.0207 C.ar      1 <0>        -0.0966
      5 C5          1.2076   -0.6849   -0.0131 C.ar      1 <0>        -0.0326
      6 C6          0.0021   -0.0041    0.0020 C.ar      1 <0>        -0.1162
      7 Cl1         1.2227   -2.4208   -0.0230 Cl        1 <0>        -0.0706
      8 C7          3.6597    2.1660   -0.0217 C.2       1 <0>        -0.2031
      9 C8          3.9817    3.1931   -0.8578 C.2       1 <0>         0.0825
     10 N1          5.2257    3.6075   -0.5427 N.pl3     1 <0>        -0.4697
     11 N2          5.6983    2.8234    0.5164 N.2       1 <0>        -0.2801
     12 H1          5.7109    4.3266   -0.9767 H         1 <0>         0.4446
     13 C9          4.7639    1.9580    0.8421 C.2       1 <0>         0.1754
     14 C10         4.8515    0.9411    1.9196 C.2       1 <0>        -0.1179
     15 C11         6.0090    0.2429    2.3146 C.2       1 <0>        -0.0657
     16 C12         5.6459   -0.5903    3.3354 C.2       1 <0>        -0.0579
     17 N3          4.3004   -0.4148    3.5685 N.pl3     1 <0>        -0.5320
     18 H2          3.7794   -0.8811    4.2408 H         1 <0>         0.4195
     19 C13         3.8255    0.5150    2.7144 C.2       1 <0>         0.0729
     20 C14         6.5335   -1.5100    4.0557 C.2       1 <0>         0.5949
     21 O1          7.7114   -1.5775    3.7574 O.2       1 <0>        -0.5241
     22 N4          6.0445   -2.2801    5.0478 N.am      1 <0>        -0.7211
     23 C15         6.9308   -3.1985    5.7669 C.3       1 <0>         0.1892
     24 C16         7.0358   -4.5153    4.9950 C.3       1 <0>         0.0667
     25 O2          5.7601   -5.1589    4.9753 O.3       1 <0>        -0.5680
     26 C17         6.3708   -3.4647    7.1405 C.ar      1 <0>        -0.0595
     27 C18         5.0100   -3.6389    7.3102 C.ar      1 <0>        -0.0929
     28 C19         4.4963   -3.8830    8.5701 C.ar      1 <0>        -0.0694
     29 C20         5.3435   -3.9535    9.6602 C.ar      1 <0>        -0.1790
     30 C21         6.7044   -3.7802    9.4903 C.ar      1 <0>        -0.0677
     31 C22         7.2185   -3.5403    8.2298 C.ar      1 <0>        -0.1082
     32 C23         4.7833   -4.2187   11.0339 C.3       1 <0>         0.5075
     33 F1          4.7506   -5.5979   11.2659 F         1 <0>        -0.1753
     34 F2          5.5931   -3.6033   11.9945 F         1 <0>        -0.1762
     35 F3          3.4863   -3.7010   11.1166 F         1 <0>        -0.1765
     36 H3         -0.9598    1.9047    0.0260 H         1 <0>         0.1327
     37 H4          1.1513    3.1677    0.0077 H         1 <0>         0.1287
     38 H5          3.3383   -0.5164   -0.0328 H         1 <0>         0.1336
     39 H6         -0.9269   -0.5549    0.0079 H         1 <0>         0.1317
     40 H7          3.3526    3.6020   -1.6347 H         1 <0>         0.1815
     41 H8          6.9969    0.3459    1.8906 H         1 <0>         0.1533
     42 H9          2.8041    0.8626    2.6654 H         1 <0>         0.1754
     43 H10         5.1056   -2.2264    5.2856 H         1 <0>         0.3971
     44 H11         7.9206   -2.7511    5.8585 H         1 <0>         0.1175
     45 H12         7.3564   -4.3128    3.9731 H         1 <0>         0.0614
     46 H13         7.7630   -5.1650    5.4820 H         1 <0>         0.0603
     47 H14         5.7521   -6.0018    4.5014 H         1 <0>         0.3834
     48 H15         4.3482   -3.5838    6.4586 H         1 <0>         0.1347
     49 H16         3.4331   -4.0184    8.7029 H         1 <0>         0.1378
     50 H17         7.3662   -3.8349   10.3420 H         1 <0>         0.1394
     51 H18         8.2821   -3.4086    8.0965 H         1 <0>         0.1386
@<TRIPOS>BOND
     1    1    6 ar
     2    1    2 ar
     3    1   36 1
     4    2    3 ar
     5    2   37 1
     6    3    4 ar
     7    3    8 1
     8    4    5 ar
     9    4   38 1
    10    5    6 ar
    11    5    7 1
    12    6   39 1
    13    8   13 1
    14    8    9 2
    15    9   40 1
    16    9   10 1
    17   10   11 1
    18   10   12 1
    19   11   13 2
    20   13   14 1
    21   14   19 2
    22   14   15 1
    23   15   16 2
    24   15   41 1
    25   16   17 1
    26   16   20 1
    27   17   18 1
    28   17   19 1
    29   19   42 1
    30   20   21 2
    31   20   22 am
    32   22   23 1
    33   22   43 1
    34   23   24 1
    35   23   26 1
    36   23   44 1
    37   24   25 1
    38   24   45 1
    39   24   46 1
    40   25   47 1
    41   26   31 ar
    42   26   27 ar
    43   27   28 ar
    44   27   48 1
    45   28   29 ar
    46   28   49 1
    47   29   30 ar
    48   29   32 1
    49   30   31 ar
    50   30   50 1
    51   31   51 1
    52   32   33 1
    53   32   34 1
    54   32   35 1
@<TRIPOS>MOLECULE
CHEMBL222465__2
   51    54     0     0     0
SMALL
USER_CHARGES

@<TRIPOS>ATOM
      1 C1          0.4585    0.4884    0.9561 C.ar      1 <0>        -0.1053
      2 C2          1.6076    1.2518    1.0011 C.ar      1 <0>        -0.0998
      3 C3          2.4549    1.2978   -0.1049 C.ar      1 <0>         0.0177
      4 C4          2.1363    0.5716   -1.2514 C.ar      1 <0>        -0.1040
      5 C5          0.9840   -0.1888   -1.2854 C.ar      1 <0>        -0.0323
      6 C6          0.1465   -0.2303   -0.1835 C.ar      1 <0>        -0.1156
      7 Cl1         0.5845   -1.0937   -2.7121 Cl        1 <0>        -0.0708
      8 C7          3.6902    2.1165   -0.0621 C.2       1 <0>        -0.2040
      9 C8          4.0508    3.1299   -0.9685 C.2       1 <0>         0.0722
     10 N1          5.2047    3.6215   -0.6039 N.2       1 <0>        -0.2870
     11 N2          5.6429    2.9556    0.5466 N.pl3     1 <0>        -0.4647
     12 H1          6.4701    3.1267    1.0233 H         1 <0>         0.4423
     13 C9          4.7029    2.0294    0.8832 C.2       1 <0>         0.1919
     14 C10         4.7529    1.1045    2.0356 C.2       1 <0>        -0.1450
     15 C11         5.0814    1.4409    3.3654 C.2       1 <0>        -0.0772
     16 C12         5.0056    0.2925    4.1007 C.2       1 <0>        -0.0521
     17 N3          4.6408   -0.7344    3.2595 N.pl3     1 <0>        -0.5281
     18 H2          4.5146   -1.6594    3.5227 H         1 <0>         0.4216
     19 C13         4.4814   -0.2472    2.0125 C.2       1 <0>         0.0831
     20 C14         5.2686    0.1735    5.5394 C.2       1 <0>         0.5931
     21 O1          5.5864    1.1561    6.1831 O.2       1 <0>        -0.5231
     22 N4          5.1581   -1.0240    6.1478 N.am      1 <0>        -0.7200
     23 C15         5.4207   -1.1428    7.5842 C.3       1 <0>         0.1893
     24 C16         4.1522   -0.7935    8.3651 C.3       1 <0>         0.0667
     25 O2          3.1386   -1.7610    8.0848 O.3       1 <0>        -0.5682
     26 C17         5.8343   -2.5562    7.9041 C.ar      1 <0>        -0.0606
     27 C18         5.2059   -3.6181    7.2807 C.ar      1 <0>        -0.0935
     28 C19         5.5853   -4.9146    7.5741 C.ar      1 <0>        -0.0690
     29 C20         6.5933   -5.1492    8.4905 C.ar      1 <0>        -0.1781
     30 C21         7.2222   -4.0873    9.1132 C.ar      1 <0>        -0.0672
     31 C22         6.8458   -2.7907    8.8166 C.ar      1 <0>        -0.1082
     32 C23         7.0062   -6.5626    8.8111 C.3       1 <0>         0.5074
     33 F1          8.0259   -6.9596    7.9395 F         1 <0>        -0.1755
     34 F2          7.4690   -6.6255   10.1298 F         1 <0>        -0.1757
     35 F3          5.9068   -7.4149    8.6615 F         1 <0>        -0.1759
     36 H3         -0.1960    0.4488    1.8142 H         1 <0>         0.1305
     37 H4          1.8497    1.8128    1.8916 H         1 <0>         0.1268
     38 H5          2.7889    0.6038   -2.1113 H         1 <0>         0.1339
     39 H6         -0.7536   -0.8264   -0.2139 H         1 <0>         0.1311
     40 H7          3.4713    3.4477   -1.8226 H         1 <0>         0.1869
     41 H8          5.3438    2.4220    3.7330 H         1 <0>         0.1533
     42 H9          4.1925   -0.8188    1.1429 H         1 <0>         0.1807
     43 H10         4.9048   -1.8072    5.6347 H         1 <0>         0.3974
     44 H11         6.2206   -0.4578    7.8652 H         1 <0>         0.1178
     45 H12         4.3709   -0.7953    9.4330 H         1 <0>         0.0612
     46 H13         3.8030    0.1952    8.0675 H         1 <0>         0.0612
     47 H14         2.3044   -1.6019    8.5471 H         1 <0>         0.3841
     48 H15         4.4184   -3.4348    6.5647 H         1 <0>         0.1340
     49 H16         5.0939   -5.7442    7.0876 H         1 <0>         0.1382
     50 H17         8.0095   -4.2706    9.8294 H         1 <0>         0.1398
     51 H18         7.3397   -1.9609    9.3003 H         1 <0>         0.1388
@<TRIPOS>BOND
     1    1    6 ar
     2    1    2 ar
     3    1   36 1
     4    2    3 ar
     5    2   37 1
     6    3    4 ar
     7    3    8 1
     8    4    5 ar
     9    4   38 1
    10    5    6 ar
    11    5    7 1
    12    6   39 1
    13    8   13 2
    14    8    9 1
    15    9   10 2
    16    9   40 1
    17   10   11 1
    18   11   12 1
    19   11   13 1
    20   13   14 1
    21   14   19 2
    22   14   15 1
    23   15   16 2
    24   15   41 1
    25   16   17 1
    26   16   20 1
    27   17   18 1
    28   17   19 1
    29   19   42 1
    30   20   21 2
    31   20   22 am
    32   22   23 1
    33   22   43 1
    34   23   24 1
    35   23   26 1
    36   23   44 1
    37   24   25 1
    38   24   45 1
    39   24   46 1
    40   25   47 1
    41   26   31 ar
    42   26   27 ar
    43   27   28 ar
    44   27   48 1
    45   28   29 ar
    46   28   49 1
    47   29   30 ar
    48   29   32 1
    49   30   31 ar
    50   30   50 1
    51   31   51 1
    52   32   33 1
    53   32   34 1
    54   32   35 1
@<TRIPOS>MOLECULE
CHEMBL222465__3
   51    54     0     0     0
SMALL
USER_CHARGES

@<TRIPOS>ATOM
      1 C1         -0.0167    1.3786    0.0096 C.ar      1 <0>        -0.1038
      2 C2          1.1676    2.0878    0.0021 C.ar      1 <0>        -0.1107
      3 C3          2.3840    1.4085   -0.0131 C.ar      1 <0>         0.0144
      4 C4          2.3983    0.0151   -0.0207 C.ar      1 <0>        -0.0967
      5 C5          1.2076   -0.6849   -0.0131 C.ar      1 <0>        -0.0327
      6 C6          0.0021   -0.0041    0.0020 C.ar      1 <0>        -0.1162
      7 Cl1         1.2227   -2.4208   -0.0230 Cl        1 <0>        -0.0703
      8 C7          3.6597    2.1660   -0.0217 C.2       1 <0>        -0.2030
      9 C8          3.9817    3.1931   -0.8578 C.2       1 <0>         0.0825
     10 N1          5.2257    3.6075   -0.5427 N.pl3     1 <0>        -0.4698
     11 N2          5.6983    2.8234    0.5164 N.2       1 <0>        -0.2803
     12 H1          5.7109    4.3266   -0.9767 H         1 <0>         0.4445
     13 C9          4.7639    1.9580    0.8421 C.2       1 <0>         0.1754
     14 C10         4.8515    0.9411    1.9196 C.2       1 <0>        -0.1179
     15 C11         6.0090    0.2429    2.3146 C.2       1 <0>        -0.0657
     16 C12         5.6459   -0.5903    3.3354 C.2       1 <0>        -0.0579
     17 N3          4.3004   -0.4148    3.5685 N.pl3     1 <0>        -0.5320
     18 H2          3.7794   -0.8811    4.2408 H         1 <0>         0.4195
     19 C13         3.8255    0.5150    2.7144 C.2       1 <0>         0.0729
     20 C14         6.5335   -1.5100    4.0557 C.2       1 <0>         0.5949
     21 O1          7.7114   -1.5775    3.7574 O.2       1 <0>        -0.5240
     22 N4          6.0445   -2.2801    5.0478 N.am      1 <0>        -0.7212
     23 C15         6.9308   -3.1985    5.7669 C.3       1 <0>         0.1892
     24 C16         7.6362   -2.4462    6.8972 C.3       1 <0>         0.0667
     25 O2          6.6708   -2.0202    7.8608 O.3       1 <0>        -0.5682
     26 C17         6.1199   -4.3293    6.3456 C.ar      1 <0>        -0.0592
     27 C18         4.8785   -4.0771    6.8988 C.ar      1 <0>        -0.0931
     28 C19         4.1346   -5.1143    7.4296 C.ar      1 <0>        -0.0691
     29 C20         4.6321   -6.4038    7.4069 C.ar      1 <0>        -0.1790
     30 C21         5.8732   -6.6562    6.8529 C.ar      1 <0>        -0.0675
     31 C22         6.6152   -5.6196    6.3182 C.ar      1 <0>        -0.1083
     32 C23         3.8217   -7.5344    7.9864 C.3       1 <0>         0.5075
     33 F1          3.0057   -8.0816    6.9905 F         1 <0>        -0.1756
     34 F2          4.6828   -8.5213    8.4781 F         1 <0>        -0.1761
     35 F3          3.0241   -7.0500    9.0288 F         1 <0>        -0.1762
     36 H3         -0.9598    1.9047    0.0260 H         1 <0>         0.1327
     37 H4          1.1513    3.1677    0.0077 H         1 <0>         0.1287
     38 H5          3.3383   -0.5164   -0.0328 H         1 <0>         0.1337
     39 H6         -0.9269   -0.5549    0.0079 H         1 <0>         0.1317
     40 H7          3.3526    3.6020   -1.6347 H         1 <0>         0.1815
     41 H8          6.9969    0.3459    1.8906 H         1 <0>         0.1533
     42 H9          2.8041    0.8626    2.6654 H         1 <0>         0.1754
     43 H10         5.1056   -2.2264    5.2856 H         1 <0>         0.3971
     44 H11         7.6743   -3.5999    5.0783 H         1 <0>         0.1176
     45 H12         8.3607   -3.1052    7.3756 H         1 <0>         0.0604
     46 H13         8.1505   -1.5762    6.4890 H         1 <0>         0.0615
     47 H14         7.0481   -1.5353    8.6076 H         1 <0>         0.3834
     48 H15         4.4898   -3.0696    6.9165 H         1 <0>         0.1342
     49 H16         3.1650   -4.9171    7.8624 H         1 <0>         0.1378
     50 H17         6.2621   -7.6636    6.8354 H         1 <0>         0.1394
     51 H18         7.5832   -5.8173    5.8821 H         1 <0>         0.1386
@<TRIPOS>BOND
     1    1    6 ar
     2    1    2 ar
     3    1   36 1
     4    2    3 ar
     5    2   37 1
     6    3    4 ar
     7    3    8 1
     8    4    5 ar
     9    4   38 1
    10    5    6 ar
    11    5    7 1
    12    6   39 1
    13    8   13 1
    14    8    9 2
    15    9   40 1
    16    9   10 1
    17   10   11 1
    18   10   12 1
    19   11   13 2
    20   13   14 1
    21   14   19 2
    22   14   15 1
    23   15   16 2
    24   15   41 1
    25   16   17 1
    26   16   20 1
    27   17   18 1
    28   17   19 1
    29   19   42 1
    30   20   21 2
    31   20   22 am
    32   22   23 1
    33   22   43 1
    34   23   24 1
    35   23   26 1
    36   23   44 1
    37   24   25 1
    38   24   45 1
    39   24   46 1
    40   25   47 1
    41   26   31 ar
    42   26   27 ar
    43   27   28 ar
    44   27   48 1
    45   28   29 ar
    46   28   49 1
    47   29   30 ar
    48   29   32 1
    49   30   31 ar
    50   30   50 1
    51   31   51 1
    52   32   33 1
    53   32   34 1
    54   32   35 1
@<TRIPOS>MOLECULE
CHEMBL220897
   48    51     0     0     0
SMALL
USER_CHARGES

@<TRIPOS>ATOM
      1 C1          0.4585    0.4884    0.9561 C.ar      1 <0>        -0.1052
      2 C2          1.6076    1.2518    1.0011 C.ar      1 <0>        -0.0998
      3 C3          2.4549    1.2978   -0.1049 C.ar      1 <0>         0.0176
      4 C4          2.1363    0.5716   -1.2514 C.ar      1 <0>        -0.1040
      5 C5          0.9840   -0.1888   -1.2854 C.ar      1 <0>        -0.0323
      6 C6          0.1465   -0.2303   -0.1835 C.ar      1 <0>        -0.1156
      7 Cl1         0.5845   -1.0937   -2.7121 Cl        1 <0>        -0.0710
      8 C7          3.6902    2.1165   -0.0621 C.2       1 <0>        -0.2037
      9 C8          4.0508    3.1299   -0.9685 C.2       1 <0>         0.0722
     10 N1          5.2047    3.6215   -0.6039 N.2       1 <0>        -0.2872
     11 N2          5.6429    2.9556    0.5466 N.pl3     1 <0>        -0.4648
     12 H1          6.4701    3.1267    1.0233 H         1 <0>         0.4422
     13 C9          4.7029    2.0294    0.8832 C.2       1 <0>         0.1920
     14 C10         4.7529    1.1045    2.0356 C.2       1 <0>        -0.1451
     15 C11         5.0814    1.4409    3.3654 C.2       1 <0>        -0.0769
     16 C12         5.0056    0.2925    4.1007 C.2       1 <0>        -0.0522
     17 N3          4.6408   -0.7344    3.2595 N.pl3     1 <0>        -0.5280
     18 H2          4.5146   -1.6594    3.5227 H         1 <0>         0.4217
     19 C13         4.4814   -0.2472    2.0125 C.2       1 <0>         0.0834
     20 C14         5.2686    0.1735    5.5394 C.2       1 <0>         0.5937
     21 O1          5.5864    1.1561    6.1831 O.2       1 <0>        -0.5224
     22 N4          5.1581   -1.0240    6.1478 N.am      1 <0>        -0.7205
     23 C15         5.4207   -1.1428    7.5842 C.3       1 <0>         0.1952
     24 C16         6.9218   -1.3287    7.8146 C.3       1 <0>         0.0660
     25 O2          7.3400   -2.5728    7.2497 O.3       1 <0>        -0.5683
     26 C17         4.6770   -2.3326    8.1341 C.ar      1 <0>        -0.0681
     27 C18         4.6142   -3.5052    7.4051 C.ar      1 <0>        -0.0790
     28 C19         3.9311   -4.5978    7.9092 C.ar      1 <0>        -0.0234
     29 C20         3.3114   -4.5165    9.1433 C.ar      1 <0>        -0.0986
     30 C21         3.3750   -3.3428    9.8726 C.ar      1 <0>        -0.0216
     31 C22         4.0627   -2.2526    9.3697 C.ar      1 <0>        -0.0944
     32 Cl2         2.5971   -3.2396   11.4211 Cl        1 <0>        -0.0493
     33 Cl3         3.8514   -6.0701    6.9930 Cl        1 <0>        -0.0511
     34 H3         -0.1960    0.4488    1.8142 H         1 <0>         0.1305
     35 H4          1.8497    1.8128    1.8916 H         1 <0>         0.1270
     36 H5          2.7889    0.6038   -2.1113 H         1 <0>         0.1338
     37 H6         -0.7536   -0.8264   -0.2139 H         1 <0>         0.1311
     38 H7          3.4713    3.4477   -1.8226 H         1 <0>         0.1869
     39 H8          5.3438    2.4220    3.7330 H         1 <0>         0.1533
     40 H9          4.1925   -0.8188    1.1429 H         1 <0>         0.1807
     41 H10         4.9048   -1.8072    5.6347 H         1 <0>         0.3973
     42 H11         5.0845   -0.2383    8.0910 H         1 <0>         0.1196
     43 H12         7.4661   -0.5126    7.3394 H         1 <0>         0.0620
     44 H13         7.1279   -1.3281    8.8850 H         1 <0>         0.0619
     45 H14         8.2829   -2.7572    7.3588 H         1 <0>         0.3844
     46 H15         5.0980   -3.5686    6.4416 H         1 <0>         0.1397
     47 H16         2.7778   -5.3689    9.5370 H         1 <0>         0.1466
     48 H17         4.1162   -1.3376    9.9410 H         1 <0>         0.1438
@<TRIPOS>BOND
     1    1    6 ar
     2    1    2 ar
     3    1   34 1
     4    2    3 ar
     5    2   35 1
     6    3    4 ar
     7    3    8 1
     8    4    5 ar
     9    4   36 1
    10    5    6 ar
    11    5    7 1
    12    6   37 1
    13    8   13 2
    14    8    9 1
    15    9   10 2
    16    9   38 1
    17   10   11 1
    18   11   12 1
    19   11   13 1
    20   13   14 1
    21   14   19 2
    22   14   15 1
    23   15   16 2
    24   15   39 1
    25   16   17 1
    26   16   20 1
    27   17   18 1
    28   17   19 1
    29   19   40 1
    30   20   21 2
    31   20   22 am
    32   22   23 1
    33   22   41 1
    34   23   24 1
    35   23   26 1
    36   23   42 1
    37   24   25 1
    38   24   43 1
    39   24   44 1
    40   25   45 1
    41   26   31 ar
    42   26   27 ar
    43   27   28 ar
    44   27   46 1
    45   28   29 ar
    46   28   33 1
    47   29   30 ar
    48   29   47 1
    49   30   31 ar
    50   30   32 1
    51   31   48 1
@<TRIPOS>MOLECULE
CHEMBL220897__1
   48    51     0     0     0
SMALL
USER_CHARGES

@<TRIPOS>ATOM
      1 C1         -0.0167    1.3786    0.0096 C.ar      1 <0>        -0.1038
      2 C2          1.1676    2.0878    0.0021 C.ar      1 <0>        -0.1106
      3 C3          2.3840    1.4085   -0.0131 C.ar      1 <0>         0.0144
      4 C4          2.3983    0.0151   -0.0207 C.ar      1 <0>        -0.0965
      5 C5          1.2076   -0.6849   -0.0131 C.ar      1 <0>        -0.0325
      6 C6          0.0021   -0.0041    0.0020 C.ar      1 <0>        -0.1162
      7 Cl1         1.2227   -2.4208   -0.0230 Cl        1 <0>        -0.0704
      8 C7          3.6597    2.1660   -0.0217 C.2       1 <0>        -0.2031
      9 C8          3.9817    3.1931   -0.8578 C.2       1 <0>         0.0824
     10 N1          5.2257    3.6075   -0.5427 N.pl3     1 <0>        -0.4698
     11 N2          5.6983    2.8234    0.5164 N.2       1 <0>        -0.2801
     12 H1          5.7109    4.3266   -0.9767 H         1 <0>         0.4445
     13 C9          4.7639    1.9580    0.8421 C.2       1 <0>         0.1755
     14 C10         4.8515    0.9411    1.9196 C.2       1 <0>        -0.1180
     15 C11         6.0090    0.2429    2.3146 C.2       1 <0>        -0.0654
     16 C12         5.6459   -0.5903    3.3354 C.2       1 <0>        -0.0579
     17 N3          4.3004   -0.4148    3.5685 N.pl3     1 <0>        -0.5319
     18 H2          3.7794   -0.8811    4.2408 H         1 <0>         0.4196
     19 C13         3.8255    0.5150    2.7144 C.2       1 <0>         0.0732
     20 C14         6.5335   -1.5100    4.0557 C.2       1 <0>         0.5955
     21 O1          7.7114   -1.5775    3.7574 O.2       1 <0>        -0.5233
     22 N4          6.0445   -2.2801    5.0478 N.am      1 <0>        -0.7217
     23 C15         6.9308   -3.1985    5.7669 C.3       1 <0>         0.1950
     24 C16         7.0358   -4.5153    4.9950 C.3       1 <0>         0.0661
     25 O2          5.7601   -5.1589    4.9753 O.3       1 <0>        -0.5679
     26 C17         6.3708   -3.4647    7.1405 C.ar      1 <0>        -0.0669
     27 C18         5.0101   -3.6388    7.3099 C.ar      1 <0>        -0.0785
     28 C19         4.4953   -3.8828    8.5708 C.ar      1 <0>        -0.0234
     29 C20         5.3428   -3.9529    9.6619 C.ar      1 <0>        -0.0994
     30 C21         6.7045   -3.7790    9.4916 C.ar      1 <0>        -0.0219
     31 C22         7.2187   -3.5402    8.2295 C.ar      1 <0>        -0.0946
     32 Cl2         7.7687   -3.8662   10.8604 Cl        1 <0>        -0.0505
     33 Cl3         2.7862   -4.1003    8.7836 Cl        1 <0>        -0.0519
     34 H3         -0.9598    1.9047    0.0260 H         1 <0>         0.1326
     35 H4          1.1513    3.1677    0.0077 H         1 <0>         0.1287
     36 H5          3.3383   -0.5164   -0.0328 H         1 <0>         0.1337
     37 H6         -0.9269   -0.5549    0.0079 H         1 <0>         0.1317
     38 H7          3.3526    3.6020   -1.6347 H         1 <0>         0.1814
     39 H8          6.9969    0.3459    1.8906 H         1 <0>         0.1533
     40 H9          2.8041    0.8626    2.6654 H         1 <0>         0.1753
     41 H10         5.1056   -2.2264    5.2856 H         1 <0>         0.3970
     42 H11         7.9206   -2.7511    5.8585 H         1 <0>         0.1191
     43 H12         7.3564   -4.3128    3.9731 H         1 <0>         0.0625
     44 H13         7.7630   -5.1650    5.4820 H         1 <0>         0.0609
     45 H14         5.7521   -6.0018    4.5014 H         1 <0>         0.3838
     46 H15         4.3486   -3.5841    6.4580 H         1 <0>         0.1403
     47 H16         4.9413   -4.1429   10.6463 H         1 <0>         0.1461
     48 H17         8.2823   -3.4088    8.0958 H         1 <0>         0.1437
@<TRIPOS>BOND
     1    1    6 ar
     2    1    2 ar
     3    1   34 1
     4    2    3 ar
     5    2   35 1
     6    3    4 ar
     7    3    8 1
     8    4    5 ar
     9    4   36 1
    10    5    6 ar
    11    5    7 1
    12    6   37 1
    13    8   13 1
    14    8    9 2
    15    9   38 1
    16    9   10 1
    17   10   11 1
    18   10   12 1
    19   11   13 2
    20   13   14 1
    21   14   19 2
    22   14   15 1
    23   15   16 2
    24   15   39 1
    25   16   17 1
    26   16   20 1
    27   17   18 1
    28   17   19 1
    29   19   40 1
    30   20   21 2
    31   20   22 am
    32   22   23 1
    33   22   41 1
    34   23   24 1
    35   23   26 1
    36   23   42 1
    37   24   25 1
    38   24   43 1
    39   24   44 1
    40   25   45 1
    41   26   31 ar
    42   26   27 ar
    43   27   28 ar
    44   27   46 1
    45   28   29 ar
    46   28   33 1
    47   29   30 ar
    48   29   47 1
    49   30   31 ar
    50   30   32 1
    51   31   48 1
@<TRIPOS>MOLECULE
CHEMBL220897__2
   48    51     0     0     0
SMALL
USER_CHARGES

@<TRIPOS>ATOM
      1 C1          0.4585    0.4884    0.9561 C.ar      1 <0>        -0.1052
      2 C2          1.6076    1.2518    1.0011 C.ar      1 <0>        -0.0997
      3 C3          2.4549    1.2978   -0.1049 C.ar      1 <0>         0.0178
      4 C4          2.1363    0.5716   -1.2514 C.ar      1 <0>        -0.1040
      5 C5          0.9840   -0.1888   -1.2854 C.ar      1 <0>        -0.0323
      6 C6          0.1465   -0.2303   -0.1835 C.ar      1 <0>        -0.1156
      7 Cl1         0.5845   -1.0937   -2.7121 Cl        1 <0>        -0.0710
      8 C7          3.6902    2.1165   -0.0621 C.2       1 <0>        -0.2041
      9 C8          4.0508    3.1299   -0.9685 C.2       1 <0>         0.0722
     10 N1          5.2047    3.6215   -0.6039 N.2       1 <0>        -0.2871
     11 N2          5.6429    2.9556    0.5466 N.pl3     1 <0>        -0.4647
     12 H1          6.4701    3.1267    1.0233 H         1 <0>         0.4423
     13 C9          4.7029    2.0294    0.8832 C.2       1 <0>         0.1921
     14 C10         4.7529    1.1045    2.0356 C.2       1 <0>        -0.1452
     15 C11         5.0814    1.4409    3.3654 C.2       1 <0>        -0.0769
     16 C12         5.0056    0.2925    4.1007 C.2       1 <0>        -0.0521
     17 N3          4.6408   -0.7344    3.2595 N.pl3     1 <0>        -0.5280
     18 H2          4.5146   -1.6594    3.5227 H         1 <0>         0.4217
     19 C13         4.4814   -0.2472    2.0125 C.2       1 <0>         0.0834
     20 C14         5.2686    0.1735    5.5394 C.2       1 <0>         0.5937
     21 O1          5.5864    1.1561    6.1831 O.2       1 <0>        -0.5224
     22 N4          5.1581   -1.0240    6.1478 N.am      1 <0>        -0.7205
     23 C15         5.4207   -1.1428    7.5842 C.3       1 <0>         0.1951
     24 C16         4.1522   -0.7935    8.3651 C.3       1 <0>         0.0662
     25 O2          3.1386   -1.7610    8.0848 O.3       1 <0>        -0.5681
     26 C17         5.8343   -2.5562    7.9041 C.ar      1 <0>        -0.0679
     27 C18         5.2058   -3.6177    7.2806 C.ar      1 <0>        -0.0792
     28 C19         5.5848   -4.9157    7.5742 C.ar      1 <0>        -0.0232
     29 C20         6.5931   -5.1508    8.4915 C.ar      1 <0>        -0.0988
     30 C21         7.2220   -4.0880    9.1148 C.ar      1 <0>        -0.0215
     31 C22         6.8457   -2.7903    8.8166 C.ar      1 <0>        -0.0946
     32 Cl2         8.4871   -4.3821   10.2666 Cl        1 <0>        -0.0493
     33 Cl3         4.7946   -6.2488    6.7919 Cl        1 <0>        -0.0510
     34 H3         -0.1960    0.4488    1.8142 H         1 <0>         0.1305
     35 H4          1.8497    1.8128    1.8916 H         1 <0>         0.1269
     36 H5          2.7889    0.6038   -2.1113 H         1 <0>         0.1338
     37 H6         -0.7536   -0.8264   -0.2139 H         1 <0>         0.1311
     38 H7          3.4713    3.4477   -1.8226 H         1 <0>         0.1869
     39 H8          5.3438    2.4220    3.7330 H         1 <0>         0.1534
     40 H9          4.1925   -0.8188    1.1429 H         1 <0>         0.1807
     41 H10         4.9048   -1.8072    5.6347 H         1 <0>         0.3972
     42 H11         6.2206   -0.4578    7.8652 H         1 <0>         0.1194
     43 H12         4.3709   -0.7953    9.4330 H         1 <0>         0.0618
     44 H13         3.8030    0.1952    8.0675 H         1 <0>         0.0622
     45 H14         2.3044   -1.6019    8.5471 H         1 <0>         0.3844
     46 H15         4.4186   -3.4341    6.5644 H         1 <0>         0.1395
     47 H16         6.8890   -6.1637    8.7213 H         1 <0>         0.1466
     48 H17         7.3396   -1.9604    9.2998 H         1 <0>         0.1437
@<TRIPOS>BOND
     1    1    6 ar
     2    1    2 ar
     3    1   34 1
     4    2    3 ar
     5    2   35 1
     6    3    4 ar
     7    3    8 1
     8    4    5 ar
     9    4   36 1
    10    5    6 ar
    11    5    7 1
    12    6   37 1
    13    8   13 2
    14    8    9 1
    15    9   10 2
    16    9   38 1
    17   10   11 1
    18   11   12 1
    19   11   13 1
    20   13   14 1
    21   14   19 2
    22   14   15 1
    23   15   16 2
    24   15   39 1
    25   16   17 1
    26   16   20 1
    27   17   18 1
    28   17   19 1
    29   19   40 1
    30   20   21 2
    31   20   22 am
    32   22   23 1
    33   22   41 1
    34   23   24 1
    35   23   26 1
    36   23   42 1
    37   24   25 1
    38   24   43 1
    39   24   44 1
    40   25   45 1
    41   26   31 ar
    42   26   27 ar
    43   27   28 ar
    44   27   46 1
    45   28   29 ar
    46   28   33 1
    47   29   30 ar
    48   29   47 1
    49   30   31 ar
    50   30   32 1
    51   31   48 1
@<TRIPOS>MOLECULE
CHEMBL220897__3
   48    51     0     0     0
SMALL
USER_CHARGES

@<TRIPOS>ATOM
      1 C1         -0.0167    1.3786    0.0096 C.ar      1 <0>        -0.1038
      2 C2          1.1676    2.0878    0.0021 C.ar      1 <0>        -0.1107
      3 C3          2.3840    1.4085   -0.0131 C.ar      1 <0>         0.0144
      4 C4          2.3983    0.0151   -0.0207 C.ar      1 <0>        -0.0966
      5 C5          1.2076   -0.6849   -0.0131 C.ar      1 <0>        -0.0326
      6 C6          0.0021   -0.0041    0.0020 C.ar      1 <0>        -0.1162
      7 Cl1         1.2227   -2.4208   -0.0230 Cl        1 <0>        -0.0703
      8 C7          3.6597    2.1660   -0.0217 C.2       1 <0>        -0.2030
      9 C8          3.9817    3.1931   -0.8578 C.2       1 <0>         0.0825
     10 N1          5.2257    3.6075   -0.5427 N.pl3     1 <0>        -0.4698
     11 N2          5.6983    2.8234    0.5164 N.2       1 <0>        -0.2802
     12 H1          5.7109    4.3266   -0.9767 H         1 <0>         0.4445
     13 C9          4.7639    1.9580    0.8421 C.2       1 <0>         0.1755
     14 C10         4.8515    0.9411    1.9196 C.2       1 <0>        -0.1180
     15 C11         6.0090    0.2429    2.3146 C.2       1 <0>        -0.0654
     16 C12         5.6459   -0.5903    3.3354 C.2       1 <0>        -0.0580
     17 N3          4.3004   -0.4148    3.5685 N.pl3     1 <0>        -0.5320
     18 H2          3.7794   -0.8811    4.2408 H         1 <0>         0.4196
     19 C13         3.8255    0.5150    2.7144 C.2       1 <0>         0.0732
     20 C14         6.5335   -1.5100    4.0557 C.2       1 <0>         0.5954
     21 O1          7.7114   -1.5775    3.7574 O.2       1 <0>        -0.5233
     22 N4          6.0445   -2.2801    5.0478 N.am      1 <0>        -0.7218
     23 C15         6.9308   -3.1985    5.7669 C.3       1 <0>         0.1950
     24 C16         7.6362   -2.4462    6.8972 C.3       1 <0>         0.0661
     25 O2          6.6708   -2.0202    7.8608 O.3       1 <0>        -0.5681
     26 C17         6.1199   -4.3293    6.3456 C.ar      1 <0>        -0.0666
     27 C18         4.8786   -4.0768    6.8987 C.ar      1 <0>        -0.0787
     28 C19         4.1339   -5.1145    7.4305 C.ar      1 <0>        -0.0231
     29 C20         4.6316   -6.4049    7.4083 C.ar      1 <0>        -0.0994
     30 C21         5.8738   -6.6571    6.8543 C.ar      1 <0>        -0.0217
     31 C22         6.6154   -5.6193    6.3181 C.ar      1 <0>        -0.0947
     32 Cl2         6.4996   -8.2761    6.8265 Cl        1 <0>        -0.0504
     33 Cl3         2.5753   -4.7970    8.1261 Cl        1 <0>        -0.0520
     34 H3         -0.9598    1.9047    0.0260 H         1 <0>         0.1326
     35 H4          1.1513    3.1677    0.0077 H         1 <0>         0.1287
     36 H5          3.3383   -0.5164   -0.0328 H         1 <0>         0.1337
     37 H6         -0.9269   -0.5549    0.0079 H         1 <0>         0.1317
     38 H7          3.3526    3.6020   -1.6347 H         1 <0>         0.1815
     39 H8          6.9969    0.3459    1.8906 H         1 <0>         0.1534
     40 H9          2.8041    0.8626    2.6654 H         1 <0>         0.1754
     41 H10         5.1056   -2.2264    5.2856 H         1 <0>         0.3970
     42 H11         7.6743   -3.5999    5.0783 H         1 <0>         0.1192
     43 H12         8.3607   -3.1052    7.3756 H         1 <0>         0.0610
     44 H13         8.1505   -1.5762    6.4890 H         1 <0>         0.0626
     45 H14         7.0481   -1.5353    8.6076 H         1 <0>         0.3838
     46 H15         4.4901   -3.0692    6.9159 H         1 <0>         0.1397
     47 H16         4.0508   -7.2152    7.8237 H         1 <0>         0.1462
     48 H17         7.5833   -5.8167    5.8815 H         1 <0>         0.1436
@<TRIPOS>BOND
     1    1    6 ar
     2    1    2 ar
     3    1   34 1
     4    2    3 ar
     5    2   35 1
     6    3    4 ar
     7    3    8 1
     8    4    5 ar
     9    4   36 1
    10    5    6 ar
    11    5    7 1
    12    6   37 1
    13    8   13 1
    14    8    9 2
    15    9   38 1
    16    9   10 1
    17   10   11 1
    18   10   12 1
    19   11   13 2
    20   13   14 1
    21   14   19 2
    22   14   15 1
    23   15   16 2
    24   15   39 1
    25   16   17 1
    26   16   20 1
    27   17   18 1
    28   17   19 1
    29   19   40 1
    30   20   21 2
    31   20   22 am
    32   22   23 1
    33   22   41 1
    34   23   24 1
    35   23   26 1
    36   23   42 1
    37   24   25 1
    38   24   43 1
    39   24   44 1
    40   25   45 1
    41   26   31 ar
    42   26   27 ar
    43   27   28 ar
    44   27   46 1
    45   28   29 ar
    46   28   33 1
    47   29   30 ar
    48   29   47 1
    49   30   31 ar
    50   30   32 1
    51   31   48 1
@<TRIPOS>MOLECULE
CHEMBL375544
   48    51     0     0     0
SMALL
USER_CHARGES

@<TRIPOS>ATOM
      1 C1          0.4585    0.4884    0.9561 C.ar      1 <0>        -0.1053
      2 C2          1.6076    1.2518    1.0011 C.ar      1 <0>        -0.0997
      3 C3          2.4549    1.2978   -0.1049 C.ar      1 <0>         0.0177
      4 C4          2.1363    0.5716   -1.2514 C.ar      1 <0>        -0.1040
      5 C5          0.9840   -0.1888   -1.2854 C.ar      1 <0>        -0.0324
      6 C6          0.1465   -0.2303   -0.1835 C.ar      1 <0>        -0.1157
      7 Cl1         0.5845   -1.0937   -2.7121 Cl        1 <0>        -0.0711
      8 C7          3.6902    2.1165   -0.0621 C.2       1 <0>        -0.2039
      9 C8          4.0508    3.1299   -0.9685 C.2       1 <0>         0.0722
     10 N1          5.2047    3.6215   -0.6039 N.2       1 <0>        -0.2873
     11 N2          5.6429    2.9556    0.5466 N.pl3     1 <0>        -0.4648
     12 H1          6.4701    3.1267    1.0233 H         1 <0>         0.4422
     13 C9          4.7029    2.0294    0.8832 C.2       1 <0>         0.1923
     14 C10         4.7529    1.1045    2.0356 C.2       1 <0>        -0.1452
     15 C11         5.0814    1.4409    3.3654 C.2       1 <0>        -0.0780
     16 C12         5.0056    0.2925    4.1007 C.2       1 <0>        -0.0513
     17 N3          4.6408   -0.7344    3.2595 N.pl3     1 <0>        -0.5279
     18 H2          4.5146   -1.6594    3.5227 H         1 <0>         0.4217
     19 C13         4.4814   -0.2472    2.0125 C.2       1 <0>         0.0824
     20 C14         5.2686    0.1735    5.5394 C.2       1 <0>         0.5922
     21 O1          5.5864    1.1561    6.1831 O.2       1 <0>        -0.5241
     22 N4          5.1581   -1.0240    6.1478 N.am      1 <0>        -0.7190
     23 C15         5.4207   -1.1428    7.5842 C.3       1 <0>         0.1928
     24 C16         6.9218   -1.3287    7.8146 C.3       1 <0>         0.0669
     25 O2          7.3400   -2.5728    7.2497 O.3       1 <0>        -0.5680
     26 C17         4.6770   -2.3326    8.1341 C.ar      1 <0>        -0.0894
     27 C18         4.6141   -3.5054    7.4050 C.ar      1 <0>        -0.0791
     28 C19         3.9322   -4.5970    7.9088 C.ar      1 <0>        -0.1104
     29 C20         3.3124   -4.5157    9.1430 C.ar      1 <0>        -0.0302
     30 C21         3.3756   -3.3416    9.8722 C.ar      1 <0>        -0.1084
     31 C22         4.0626   -2.2526    9.3699 C.ar      1 <0>        -0.0945
     32 Cl2         2.4552   -5.8861    9.7762 Cl        1 <0>        -0.0660
     33 H3         -0.1960    0.4488    1.8142 H         1 <0>         0.1305
     34 H4          1.8497    1.8128    1.8916 H         1 <0>         0.1270
     35 H5          2.7889    0.6038   -2.1113 H         1 <0>         0.1338
     36 H6         -0.7536   -0.8264   -0.2139 H         1 <0>         0.1311
     37 H7          3.4713    3.4477   -1.8226 H         1 <0>         0.1869
     38 H8          5.3438    2.4220    3.7330 H         1 <0>         0.1531
     39 H9          4.1925   -0.8188    1.1429 H         1 <0>         0.1805
     40 H10         4.9048   -1.8072    5.6347 H         1 <0>         0.3969
     41 H11         5.0845   -0.2383    8.0910 H         1 <0>         0.1153
     42 H12         7.4661   -0.5126    7.3394 H         1 <0>         0.0590
     43 H13         7.1279   -1.3281    8.8850 H         1 <0>         0.0602
     44 H14         8.2829   -2.7572    7.3588 H         1 <0>         0.3828
     45 H15         5.0977   -3.5687    6.4414 H         1 <0>         0.1308
     46 H16         3.8829   -5.5131    7.3389 H         1 <0>         0.1351
     47 H17         2.8917   -3.2775   10.8356 H         1 <0>         0.1368
     48 H18         4.1161   -1.3376    9.9412 H         1 <0>         0.1352
@<TRIPOS>BOND
     1    1    6 ar
     2    1    2 ar
     3    1   33 1
     4    2    3 ar
     5    2   34 1
     6    3    4 ar
     7    3    8 1
     8    4    5 ar
     9    4   35 1
    10    5    6 ar
    11    5    7 1
    12    6   36 1
    13    8   13 2
    14    8    9 1
    15    9   10 2
    16    9   37 1
    17   10   11 1
    18   11   12 1
    19   11   13 1
    20   13   14 1
    21   14   19 2
    22   14   15 1
    23   15   16 2
    24   15   38 1
    25   16   17 1
    26   16   20 1
    27   17   18 1
    28   17   19 1
    29   19   39 1
    30   20   21 2
    31   20   22 am
    32   22   23 1
    33   22   40 1
    34   23   24 1
    35   23   26 1
    36   23   41 1
    37   24   25 1
    38   24   42 1
    39   24   43 1
    40   25   44 1
    41   26   31 ar
    42   26   27 ar
    43   27   28 ar
    44   27   45 1
    45   28   29 ar
    46   28   46 1
    47   29   30 ar
    48   29   32 1
    49   30   31 ar
    50   30   47 1
    51   31   48 1
@<TRIPOS>MOLECULE
CHEMBL375544__1
   48    51     0     0     0
SMALL
USER_CHARGES

@<TRIPOS>ATOM
      1 C1         -0.0167    1.3786    0.0096 C.ar      1 <0>        -0.1039
      2 C2          1.1676    2.0878    0.0021 C.ar      1 <0>        -0.1107
      3 C3          2.3840    1.4085   -0.0131 C.ar      1 <0>         0.0146
      4 C4          2.3983    0.0151   -0.0207 C.ar      1 <0>        -0.0965
      5 C5          1.2076   -0.6849   -0.0131 C.ar      1 <0>        -0.0325
      6 C6          0.0021   -0.0041    0.0020 C.ar      1 <0>        -0.1163
      7 Cl1         1.2227   -2.4208   -0.0230 Cl        1 <0>        -0.0705
      8 C7          3.6597    2.1660   -0.0217 C.2       1 <0>        -0.2032
      9 C8          3.9817    3.1931   -0.8578 C.2       1 <0>         0.0824
     10 N1          5.2257    3.6075   -0.5427 N.pl3     1 <0>        -0.4699
     11 N2          5.6983    2.8234    0.5164 N.2       1 <0>        -0.2802
     12 H1          5.7109    4.3266   -0.9767 H         1 <0>         0.4445
     13 C9          4.7639    1.9580    0.8421 C.2       1 <0>         0.1757
     14 C10         4.8515    0.9411    1.9196 C.2       1 <0>        -0.1181
     15 C11         6.0090    0.2429    2.3146 C.2       1 <0>        -0.0665
     16 C12         5.6459   -0.5903    3.3354 C.2       1 <0>        -0.0570
     17 N3          4.3004   -0.4148    3.5685 N.pl3     1 <0>        -0.5319
     18 H2          3.7794   -0.8811    4.2408 H         1 <0>         0.4195
     19 C13         3.8255    0.5150    2.7144 C.2       1 <0>         0.0722
     20 C14         6.5335   -1.5100    4.0557 C.2       1 <0>         0.5940
     21 O1          7.7114   -1.5775    3.7574 O.2       1 <0>        -0.5250
     22 N4          6.0445   -2.2801    5.0478 N.am      1 <0>        -0.7203
     23 C15         6.9308   -3.1985    5.7669 C.3       1 <0>         0.1927
     24 C16         7.0358   -4.5153    4.9950 C.3       1 <0>         0.0670
     25 O2          5.7601   -5.1589    4.9753 O.3       1 <0>        -0.5675
     26 C17         6.3708   -3.4647    7.1405 C.ar      1 <0>        -0.0880
     27 C18         5.0099   -3.6388    7.3099 C.ar      1 <0>        -0.0788
     28 C19         4.4957   -3.8830    8.5694 C.ar      1 <0>        -0.1105
     29 C20         5.3433   -3.9531    9.6607 C.ar      1 <0>        -0.0308
     30 C21         6.7052   -3.7787    9.4905 C.ar      1 <0>        -0.1088
     31 C22         7.2188   -3.5402    8.2296 C.ar      1 <0>        -0.0948
     32 Cl2         4.6981   -4.2592   11.2430 Cl        1 <0>        -0.0673
     33 H3         -0.9598    1.9047    0.0260 H         1 <0>         0.1327
     34 H4          1.1513    3.1677    0.0077 H         1 <0>         0.1287
     35 H5          3.3383   -0.5164   -0.0328 H         1 <0>         0.1337
     36 H6         -0.9269   -0.5549    0.0079 H         1 <0>         0.1317
     37 H7          3.3526    3.6020   -1.6347 H         1 <0>         0.1814
     38 H8          6.9969    0.3459    1.8906 H         1 <0>         0.1531
     39 H9          2.8041    0.8626    2.6654 H         1 <0>         0.1752
     40 H10         5.1056   -2.2264    5.2856 H         1 <0>         0.3966
     41 H11         7.9206   -2.7511    5.8585 H         1 <0>         0.1148
     42 H12         7.3564   -4.3128    3.9731 H         1 <0>         0.0595
     43 H13         7.7630   -5.1650    5.4820 H         1 <0>         0.0592
     44 H14         5.7521   -6.0018    4.5014 H         1 <0>         0.3822
     45 H15         4.3484   -3.5837    6.4580 H         1 <0>         0.1314
     46 H16         3.4325   -4.0187    8.7017 H         1 <0>         0.1348
     47 H17         7.3672   -3.8330   10.3420 H         1 <0>         0.1364
     48 H18         8.2824   -3.4088    8.0959 H         1 <0>         0.1351
@<TRIPOS>BOND
     1    1    6 ar
     2    1    2 ar
     3    1   33 1
     4    2    3 ar
     5    2   34 1
     6    3    4 ar
     7    3    8 1
     8    4    5 ar
     9    4   35 1
    10    5    6 ar
    11    5    7 1
    12    6   36 1
    13    8   13 1
    14    8    9 2
    15    9   37 1
    16    9   10 1
    17   10   11 1
    18   10   12 1
    19   11   13 2
    20   13   14 1
    21   14   19 2
    22   14   15 1
    23   15   16 2
    24   15   38 1
    25   16   17 1
    26   16   20 1
    27   17   18 1
    28   17   19 1
    29   19   39 1
    30   20   21 2
    31   20   22 am
    32   22   23 1
    33   22   40 1
    34   23   24 1
    35   23   26 1
    36   23   41 1
    37   24   25 1
    38   24   42 1
    39   24   43 1
    40   25   44 1
    41   26   31 ar
    42   26   27 ar
    43   27   28 ar
    44   27   45 1
    45   28   29 ar
    46   28   46 1
    47   29   30 ar
    48   29   32 1
    49   30   31 ar
    50   30   47 1
    51   31   48 1
@<TRIPOS>MOLECULE
CHEMBL375544__2
   48    51     0     0     0
SMALL
USER_CHARGES

@<TRIPOS>ATOM
      1 C1          0.4585    0.4884    0.9561 C.ar      1 <0>        -0.1053
      2 C2          1.6076    1.2518    1.0011 C.ar      1 <0>        -0.0997
      3 C3          2.4549    1.2978   -0.1049 C.ar      1 <0>         0.0179
      4 C4          2.1363    0.5716   -1.2514 C.ar      1 <0>        -0.1040
      5 C5          0.9840   -0.1888   -1.2854 C.ar      1 <0>        -0.0324
      6 C6          0.1465   -0.2303   -0.1835 C.ar      1 <0>        -0.1157
      7 Cl1         0.5845   -1.0937   -2.7121 Cl        1 <0>        -0.0710
      8 C7          3.6902    2.1165   -0.0621 C.2       1 <0>        -0.2044
      9 C8          4.0508    3.1299   -0.9685 C.2       1 <0>         0.0722
     10 N1          5.2047    3.6215   -0.6039 N.2       1 <0>        -0.2872
     11 N2          5.6429    2.9556    0.5466 N.pl3     1 <0>        -0.4647
     12 H1          6.4701    3.1267    1.0233 H         1 <0>         0.4423
     13 C9          4.7029    2.0294    0.8832 C.2       1 <0>         0.1924
     14 C10         4.7529    1.1045    2.0356 C.2       1 <0>        -0.1453
     15 C11         5.0814    1.4409    3.3654 C.2       1 <0>        -0.0780
     16 C12         5.0056    0.2925    4.1007 C.2       1 <0>        -0.0513
     17 N3          4.6408   -0.7344    3.2595 N.pl3     1 <0>        -0.5279
     18 H2          4.5146   -1.6594    3.5227 H         1 <0>         0.4217
     19 C13         4.4814   -0.2472    2.0125 C.2       1 <0>         0.0824
     20 C14         5.2686    0.1735    5.5394 C.2       1 <0>         0.5922
     21 O1          5.5864    1.1561    6.1831 O.2       1 <0>        -0.5241
     22 N4          5.1581   -1.0240    6.1478 N.am      1 <0>        -0.7191
     23 C15         5.4207   -1.1428    7.5842 C.3       1 <0>         0.1928
     24 C16         4.1522   -0.7935    8.3651 C.3       1 <0>         0.0671
     25 O2          3.1386   -1.7610    8.0848 O.3       1 <0>        -0.5678
     26 C17         5.8343   -2.5562    7.9041 C.ar      1 <0>        -0.0891
     27 C18         5.2057   -3.6179    7.2805 C.ar      1 <0>        -0.0794
     28 C19         5.5846   -4.9144    7.5734 C.ar      1 <0>        -0.1102
     29 C20         6.5931   -5.1496    8.4909 C.ar      1 <0>        -0.0304
     30 C21         7.2217   -4.0866    9.1147 C.ar      1 <0>        -0.1083
     31 C22         6.8458   -2.7904    8.8167 C.ar      1 <0>        -0.0947
     32 Cl2         7.0691   -6.7778    8.8598 Cl        1 <0>        -0.0660
     33 H3         -0.1960    0.4488    1.8142 H         1 <0>         0.1305
     34 H4          1.8497    1.8128    1.8916 H         1 <0>         0.1269
     35 H5          2.7889    0.6038   -2.1113 H         1 <0>         0.1339
     36 H6         -0.7536   -0.8264   -0.2139 H         1 <0>         0.1311
     37 H7          3.4713    3.4477   -1.8226 H         1 <0>         0.1869
     38 H8          5.3438    2.4220    3.7330 H         1 <0>         0.1531
     39 H9          4.1925   -0.8188    1.1429 H         1 <0>         0.1805
     40 H10         4.9048   -1.8072    5.6347 H         1 <0>         0.3969
     41 H11         6.2206   -0.4578    7.8652 H         1 <0>         0.1151
     42 H12         4.3709   -0.7953    9.4330 H         1 <0>         0.0601
     43 H13         3.8030    0.1952    8.0675 H         1 <0>         0.0593
     44 H14         2.3044   -1.6019    8.5471 H         1 <0>         0.3829
     45 H15         4.4183   -3.4342    6.5646 H         1 <0>         0.1307
     46 H16         5.0932   -5.7438    7.0865 H         1 <0>         0.1352
     47 H17         8.0088   -4.2696    9.8312 H         1 <0>         0.1368
     48 H18         7.3398   -1.9604    9.3000 H         1 <0>         0.1352
@<TRIPOS>BOND
     1    1    6 ar
     2    1    2 ar
     3    1   33 1
     4    2    3 ar
     5    2   34 1
     6    3    4 ar
     7    3    8 1
     8    4    5 ar
     9    4   35 1
    10    5    6 ar
    11    5    7 1
    12    6   36 1
    13    8   13 2
    14    8    9 1
    15    9   10 2
    16    9   37 1
    17   10   11 1
    18   11   12 1
    19   11   13 1
    20   13   14 1
    21   14   19 2
    22   14   15 1
    23   15   16 2
    24   15   38 1
    25   16   17 1
    26   16   20 1
    27   17   18 1
    28   17   19 1
    29   19   39 1
    30   20   21 2
    31   20   22 am
    32   22   23 1
    33   22   40 1
    34   23   24 1
    35   23   26 1
    36   23   41 1
    37   24   25 1
    38   24   42 1
    39   24   43 1
    40   25   44 1
    41   26   31 ar
    42   26   27 ar
    43   27   28 ar
    44   27   45 1
    45   28   29 ar
    46   28   46 1
    47   29   30 ar
    48   29   32 1
    49   30   31 ar
    50   30   47 1
    51   31   48 1
@<TRIPOS>MOLECULE
CHEMBL375544__3
   48    51     0     0     0
SMALL
USER_CHARGES

@<TRIPOS>ATOM
      1 C1         -0.0167    1.3786    0.0096 C.ar      1 <0>        -0.1039
      2 C2          1.1676    2.0878    0.0021 C.ar      1 <0>        -0.1107
      3 C3          2.3840    1.4085   -0.0131 C.ar      1 <0>         0.0145
      4 C4          2.3983    0.0151   -0.0207 C.ar      1 <0>        -0.0966
      5 C5          1.2076   -0.6849   -0.0131 C.ar      1 <0>        -0.0326
      6 C6          0.0021   -0.0041    0.0020 C.ar      1 <0>        -0.1163
      7 Cl1         1.2227   -2.4208   -0.0230 Cl        1 <0>        -0.0704
      8 C7          3.6597    2.1660   -0.0217 C.2       1 <0>        -0.2031
      9 C8          3.9817    3.1931   -0.8578 C.2       1 <0>         0.0824
     10 N1          5.2257    3.6075   -0.5427 N.pl3     1 <0>        -0.4699
     11 N2          5.6983    2.8234    0.5164 N.2       1 <0>        -0.2803
     12 H1          5.7109    4.3266   -0.9767 H         1 <0>         0.4445
     13 C9          4.7639    1.9580    0.8421 C.2       1 <0>         0.1757
     14 C10         4.8515    0.9411    1.9196 C.2       1 <0>        -0.1181
     15 C11         6.0090    0.2429    2.3146 C.2       1 <0>        -0.0665
     16 C12         5.6459   -0.5903    3.3354 C.2       1 <0>        -0.0571
     17 N3          4.3004   -0.4148    3.5685 N.pl3     1 <0>        -0.5319
     18 H2          3.7794   -0.8811    4.2408 H         1 <0>         0.4195
     19 C13         3.8255    0.5150    2.7144 C.2       1 <0>         0.0723
     20 C14         6.5335   -1.5100    4.0557 C.2       1 <0>         0.5940
     21 O1          7.7114   -1.5775    3.7574 O.2       1 <0>        -0.5250
     22 N4          6.0445   -2.2801    5.0478 N.am      1 <0>        -0.7204
     23 C15         6.9308   -3.1985    5.7669 C.3       1 <0>         0.1927
     24 C16         7.6362   -2.4462    6.8972 C.3       1 <0>         0.0670
     25 O2          6.6708   -2.0202    7.8608 O.3       1 <0>        -0.5678
     26 C17         6.1199   -4.3293    6.3456 C.ar      1 <0>        -0.0877
     27 C18         4.8784   -4.0767    6.8987 C.ar      1 <0>        -0.0790
     28 C19         4.1343   -5.1134    7.4296 C.ar      1 <0>        -0.1103
     29 C20         4.6321   -6.4041    7.4074 C.ar      1 <0>        -0.0308
     30 C21         5.8747   -6.6562    6.8537 C.ar      1 <0>        -0.1086
     31 C22         6.6155   -5.6195    6.3181 C.ar      1 <0>        -0.0949
     32 Cl2         3.6983   -7.7066    8.0746 Cl        1 <0>        -0.0672
     33 H3         -0.9598    1.9047    0.0260 H         1 <0>         0.1327
     34 H4          1.1513    3.1677    0.0077 H         1 <0>         0.1287
     35 H5          3.3383   -0.5164   -0.0328 H         1 <0>         0.1337
     36 H6         -0.9269   -0.5549    0.0079 H         1 <0>         0.1317
     37 H7          3.3526    3.6020   -1.6347 H         1 <0>         0.1815
     38 H8          6.9969    0.3459    1.8906 H         1 <0>         0.1531
     39 H9          2.8041    0.8626    2.6654 H         1 <0>         0.1752
     40 H10         5.1056   -2.2264    5.2856 H         1 <0>         0.3966
     41 H11         7.6743   -3.5999    5.0783 H         1 <0>         0.1149
     42 H12         8.3607   -3.1052    7.3756 H         1 <0>         0.0593
     43 H13         8.1505   -1.5762    6.4890 H         1 <0>         0.0596
     44 H14         7.0481   -1.5353    8.6076 H         1 <0>         0.3822
     45 H15         4.4901   -3.0691    6.9163 H         1 <0>         0.1309
     46 H16         3.1645   -4.9159    7.8620 H         1 <0>         0.1348
     47 H17         6.2640   -7.6634    6.8364 H         1 <0>         0.1364
     48 H18         7.5834   -5.8169    5.8815 H         1 <0>         0.1351
@<TRIPOS>BOND
     1    1    6 ar
     2    1    2 ar
     3    1   33 1
     4    2    3 ar
     5    2   34 1
     6    3    4 ar
     7    3    8 1
     8    4    5 ar
     9    4   35 1
    10    5    6 ar
    11    5    7 1
    12    6   36 1
    13    8   13 1
    14    8    9 2
    15    9   37 1
    16    9   10 1
    17   10   11 1
    18   10   12 1
    19   11   13 2
    20   13   14 1
    21   14   19 2
    22   14   15 1
    23   15   16 2
    24   15   38 1
    25   16   17 1
    26   16   20 1
    27   17   18 1
    28   17   19 1
    29   19   39 1
    30   20   21 2
    31   20   22 am
    32   22   23 1
    33   22   40 1
    34   23   24 1
    35   23   26 1
    36   23   41 1
    37   24   25 1
    38   24   42 1
    39   24   43 1
    40   25   44 1
    41   26   31 ar
    42   26   27 ar
    43   27   28 ar
    44   27   45 1
    45   28   29 ar
    46   28   46 1
    47   29   30 ar
    48   29   32 1
    49   30   31 ar
    50   30   47 1
    51   31   48 1
@<TRIPOS>MOLECULE
CHEMBL572162
   54    57     0     0     0
SMALL
USER_CHARGES

@<TRIPOS>ATOM
      1 C1          0.2661    1.4995   -0.0116 C.3       1 <0>        -0.1017
      2 C2          0.2101   -0.0065   -0.0140 C.ar      1 <0>        -0.2375
      3 C3         -0.0145   -0.7042   -1.1864 C.ar      1 <0>         0.1899
      4 N1         -0.0581   -2.0272   -1.1549 N.ar      1 <0>        -0.5585
      5 C4          0.1101   -2.6886   -0.0188 C.ar      1 <0>         0.5594
      6 N2          0.3270   -2.0605    1.1260 N.ar      1 <0>        -0.5506
      7 C5          0.3897   -0.7310    1.1683 C.ar      1 <0>         0.3002
      8 C6          0.6398   -0.0299    2.4496 C.2       1 <0>        -0.1548
      9 C7          0.1912   -0.4315    3.7243 C.2       1 <0>        -0.0520
     10 C8          0.6435    0.4954    4.6190 C.2       1 <0>        -0.0599
     11 N3          1.3545    1.4501    3.9269 N.pl3     1 <0>        -0.5287
     12 H1          1.7864    2.2247    4.3197 H         1 <0>         0.4212
     13 C9          1.3593    1.1328    2.6183 C.2       1 <0>         0.0715
     14 C10         0.4118    0.4773    6.0680 C.2       1 <0>         0.5919
     15 O1         -0.2357   -0.4227    6.5694 O.2       1 <0>        -0.5242
     16 N4          0.9160    1.4576    6.8434 N.am      1 <0>        -0.7188
     17 C11         0.6847    1.4396    8.2899 C.3       1 <0>         0.1925
     18 H2          0.6805    0.4088    8.6443 H         1 <0>         0.1123
     19 C12        -0.6650    2.0906    8.5987 C.3       1 <0>         0.0676
     20 O2         -0.6202    3.4732    8.2402 O.3       1 <0>        -0.5671
     21 C13         1.7820    2.2049    8.9836 C.ar      1 <0>        -0.0931
     22 C14         2.2571    3.3817    8.4355 C.ar      1 <0>        -0.0918
     23 C15         3.2636    4.0837    9.0718 C.ar      1 <0>        -0.1209
     24 C16         3.7947    3.6092   10.2566 C.ar      1 <0>        -0.1155
     25 C17         3.3189    2.4330   10.8053 C.ar      1 <0>        -0.1183
     26 C18         2.3095    1.7332   10.1711 C.ar      1 <0>        -0.1083
     27 N5          0.0571   -4.0727   -0.0296 N.pl3     1 <0>        -0.6363
     28 C19        -0.0449   -4.7596   -1.2447 C.ar      1 <0>         0.1406
     29 C20         0.5338   -4.2339   -2.3919 C.ar      1 <0>        -0.0934
     30 C21         0.4320   -4.9144   -3.5898 C.ar      1 <0>        -0.1075
     31 C22        -0.2454   -6.1185   -3.6482 C.ar      1 <0>        -0.1123
     32 C23        -0.8240   -6.6462   -2.5085 C.ar      1 <0>        -0.1318
     33 C24        -0.7211   -5.9734   -1.3047 C.ar      1 <0>         0.0634
     34 F1         -1.2812   -6.4917   -0.1898 F         1 <0>        -0.1385
     35 H3          1.2913    1.8252   -0.1877 H         1 <0>         0.0701
     36 H4         -0.3790    1.8883   -0.7995 H         1 <0>         0.0703
     37 H5         -0.0735    1.8742    0.9540 H         1 <0>         0.0738
     38 H6         -0.1533   -0.1756   -2.1180 H         1 <0>         0.1714
     39 H7         -0.3990   -1.3073    3.9505 H         1 <0>         0.1552
     40 H8          1.8426    1.6960    1.8337 H         1 <0>         0.1846
     41 H9          1.4321    2.1751    6.4436 H         1 <0>         0.3963
     42 H10        -1.4480    1.5922    8.0271 H         1 <0>         0.0577
     43 H11        -0.8778    1.9981    9.6637 H         1 <0>         0.0587
     44 H12        -1.4442    3.9502    8.4090 H         1 <0>         0.3810
     45 H13         1.8422    3.7523    7.5098 H         1 <0>         0.1207
     46 H14         3.6353    5.0027    8.6432 H         1 <0>         0.1230
     47 H15         4.5815    4.1574   10.7535 H         1 <0>         0.1229
     48 H16         3.7341    2.0621   11.7308 H         1 <0>         0.1248
     49 H17         1.9352    0.8162   10.6017 H         1 <0>         0.1243
     50 H18         0.0906   -4.5658    0.8050 H         1 <0>         0.4264
     51 H19         1.0629   -3.2934   -2.3480 H         1 <0>         0.1458
     52 H20         0.8819   -4.5052   -4.4823 H         1 <0>         0.1321
     53 H21        -0.3231   -6.6479   -4.5864 H         1 <0>         0.1332
     54 H22        -1.3526   -7.5867   -2.5576 H         1 <0>         0.1386
@<TRIPOS>BOND
     1    1    2 1
     2    1   35 1
     3    1   36 1
     4    1   37 1
     5    2    7 ar
     6    2    3 ar
     7    3    4 ar
     8    3   38 1
     9    4    5 ar
    10    5    6 ar
    11    5   27 1
    12    6    7 ar
    13    7    8 1
    14    8   13 2
    15    8    9 1
    16    9   10 2
    17    9   39 1
    18   10   11 1
    19   10   14 1
    20   11   12 1
    21   11   13 1
    22   13   40 1
    23   14   15 2
    24   14   16 am
    25   16   17 1
    26   16   41 1
    27   17   18 1
    28   17   19 1
    29   17   21 1
    30   19   20 1
    31   19   42 1
    32   19   43 1
    33   20   44 1
    34   21   26 ar
    35   21   22 ar
    36   22   23 ar
    37   22   45 1
    38   23   24 ar
    39   23   46 1
    40   24   25 ar
    41   24   47 1
    42   25   26 ar
    43   25   48 1
    44   26   49 1
    45   27   28 1
    46   27   50 1
    47   28   33 ar
    48   28   29 ar
    49   29   30 ar
    50   29   51 1
    51   30   31 ar
    52   30   52 1
    53   31   32 ar
    54   31   53 1
    55   32   33 ar
    56   32   54 1
    57   33   34 1
@<TRIPOS>MOLECULE
CHEMBL571722
   60    64     0     0     0
SMALL
USER_CHARGES

@<TRIPOS>ATOM
      1 C1          0.2427    1.5003   -0.0100 C.3       1 <0>        -0.1008
      2 C2          0.1930   -0.0059   -0.0128 C.ar      1 <0>        -0.2409
      3 C3         -0.0311   -0.7041   -1.1850 C.ar      1 <0>         0.1903
      4 N1         -0.0691   -2.0272   -1.1540 N.ar      1 <0>        -0.5577
      5 C4          0.1043   -2.6885   -0.0185 C.ar      1 <0>         0.5607
      6 N2          0.3213   -2.0598    1.1261 N.ar      1 <0>        -0.5523
      7 C5          0.3781   -0.7301    1.1689 C.ar      1 <0>         0.2991
      8 C6          0.6274   -0.0285    2.4500 C.2       1 <0>        -0.1530
      9 C7          0.1830   -0.4326    3.7253 C.2       1 <0>        -0.0510
     10 C8          0.6327    0.4960    4.6196 C.2       1 <0>        -0.0615
     11 N3          1.3381    1.4542    3.9266 N.pl3     1 <0>        -0.5293
     12 H1          1.7676    2.2303    4.3190 H         1 <0>         0.4208
     13 C9          1.3419    1.1375    2.6179 C.2       1 <0>         0.0714
     14 C10         0.4034    0.4765    6.0690 C.2       1 <0>         0.5932
     15 O1         -0.2394   -0.4265    6.5712 O.2       1 <0>        -0.5231
     16 N4          0.9046    1.4587    6.8438 N.am      1 <0>        -0.7198
     17 C11         0.6757    1.4392    8.2907 C.3       1 <0>         0.1936
     18 H2          0.6766    0.4084    8.6448 H         1 <0>         0.1150
     19 C12        -0.6763    2.0843    8.6019 C.3       1 <0>         0.0671
     20 O2         -0.6380    3.4671    8.2438 O.3       1 <0>        -0.5678
     21 C13         1.7708    2.2091    8.9830 C.ar      1 <0>        -0.0798
     22 C14         2.2399    3.3882    8.4341 C.ar      1 <0>        -0.0877
     23 C15         3.2443    4.0949    9.0685 C.ar      1 <0>        -0.1063
     24 C16         3.7806    3.6228   10.2519 C.ar      1 <0>        -0.1061
     25 C17         3.3117    2.4431   10.8014 C.ar      1 <0>        -0.0331
     26 C18         2.3019    1.7393   10.1691 C.ar      1 <0>        -0.0995
     27 Cl1         3.9847    1.8496   12.2875 Cl        1 <0>        -0.0649
     28 N5          0.0566   -4.0725   -0.0296 N.pl3     1 <0>        -0.6290
     29 C19        -0.0459   -4.7600   -1.2457 C.ar      1 <0>         0.1807
     30 C20         0.5331   -4.2336   -2.3922 C.ar      1 <0>        -0.1168
     31 C21         0.4317   -4.9116   -3.5918 C.ar      1 <0>        -0.0922
     32 C22        -0.2464   -6.1143   -3.6548 C.ar      1 <0>        -0.1335
     33 C23        -0.8287   -6.6483   -2.5133 C.ar      1 <0>         0.0699
     34 C24        -0.7237   -5.9750   -1.3043 C.ar      1 <0>         0.0167
     35 O3         -1.2771   -6.4872   -0.1701 O.3       1 <0>        -0.3099
     36 C25        -2.2618   -7.5124   -0.3409 C.3       1 <0>         0.0237
     37 C26        -1.7274   -8.5260   -1.3618 C.3       1 <0>         0.0199
     38 O4         -1.4958   -7.8320   -2.5958 O.3       1 <0>        -0.3052
     39 H3          1.2661    1.8304   -0.1880 H         1 <0>         0.0692
     40 H4         -0.4057    1.8867   -0.7963 H         1 <0>         0.0696
     41 H5         -0.0965    1.8732    0.9565 H         1 <0>         0.0729
     42 H6         -0.1740   -0.1757   -2.1161 H         1 <0>         0.1702
     43 H7         -0.4032   -1.3109    3.9522 H         1 <0>         0.1551
     44 H8          1.8212    1.7032    1.8326 H         1 <0>         0.1846
     45 H9          1.4170    2.1785    6.4435 H         1 <0>         0.3965
     46 H10        -1.4580    1.5827    8.0313 H         1 <0>         0.0600
     47 H11        -0.8870    1.9905    9.6672 H         1 <0>         0.0599
     48 H12        -1.4638    3.9406    8.4140 H         1 <0>         0.3825
     49 H13         1.8217    3.7571    7.5093 H         1 <0>         0.1284
     50 H14         3.6103    5.0159    8.6393 H         1 <0>         0.1343
     51 H15         4.5659    4.1747   10.7470 H         1 <0>         0.1349
     52 H16         1.9323    0.8205   10.6000 H         1 <0>         0.1358
     53 H17         0.0942   -4.5658    0.8048 H         1 <0>         0.4272
     54 H18         1.0627   -3.2935   -2.3466 H         1 <0>         0.1456
     55 H19         0.8831   -4.5005   -4.4827 H         1 <0>         0.1358
     56 H20        -0.3237   -6.6401   -4.5950 H         1 <0>         0.1348
     57 H21        -2.4428   -8.0106    0.6116 H         1 <0>         0.1225
     58 H22        -3.1892   -7.0738   -0.7091 H         1 <0>         0.0772
     59 H23        -0.7971   -8.9607   -0.9960 H         1 <0>         0.0795
     60 H24        -2.4648   -9.3132   -1.5189 H         1 <0>         0.1225
@<TRIPOS>BOND
     1    1    2 1
     2    1   39 1
     3    1   40 1
     4    1   41 1
     5    2    7 ar
     6    2    3 ar
     7    3    4 ar
     8    3   42 1
     9    4    5 ar
    10    5    6 ar
    11    5   28 1
    12    6    7 ar
    13    7    8 1
    14    8   13 2
    15    8    9 1
    16    9   10 2
    17    9   43 1
    18   10   11 1
    19   10   14 1
    20   11   12 1
    21   11   13 1
    22   13   44 1
    23   14   15 2
    24   14   16 am
    25   16   17 1
    26   16   45 1
    27   17   18 1
    28   17   19 1
    29   17   21 1
    30   19   20 1
    31   19   46 1
    32   19   47 1
    33   20   48 1
    34   21   26 ar
    35   21   22 ar
    36   22   23 ar
    37   22   49 1
    38   23   24 ar
    39   23   50 1
    40   24   25 ar
    41   24   51 1
    42   25   26 ar
    43   25   27 1
    44   26   52 1
    45   28   29 1
    46   28   53 1
    47   29   34 ar
    48   29   30 ar
    49   30   31 ar
    50   30   54 1
    51   31   32 ar
    52   31   55 1
    53   32   33 ar
    54   32   56 1
    55   33   38 1
    56   33   34 ar
    57   34   35 1
    58   35   36 1
    59   36   37 1
    60   36   57 1
    61   36   58 1
    62   37   38 1
    63   37   59 1
    64   37   60 1
@<TRIPOS>MOLECULE
CHEMBL255465
   28    30     0     0     0
SMALL
USER_CHARGES

@<TRIPOS>ATOM
      1 C1         -0.0169    1.3979    0.0097 C.2       1 <0>        -0.1853
      2 C2          1.2697    1.8211   -0.0003 C.2       1 <0>         0.0002
      3 N1          2.1027    0.7421   -0.0039 N.pl3     1 <0>        -0.5131
      4 H1          3.0718    0.7768   -0.0265 H         1 <0>         0.4179
      5 C3          1.3532   -0.3880    0.0293 C.2       1 <0>        -0.0595
      6 C4          0.0021   -0.0041    0.0020 C.2       1 <0>        -0.0520
      7 C5         -1.0943   -0.9739   -0.0791 C.2       1 <0>        -0.1071
      8 C6         -1.9967   -1.1126    0.9290 C.2       1 <0>         0.0917
      9 C7         -3.1333   -2.0409    0.9857 C.2       1 <0>         0.4671
     10 O1         -3.4883   -2.9333    0.0339 O.3       1 <0>        -0.6411
     11 N2         -3.7419   -1.8425    2.1354 N.2       1 <0>        -0.6216
     12 C8         -3.1225   -0.8813    2.8371 C.2       1 <0>         0.5790
     13 N3         -2.0365   -0.4063    2.1342 N.pl3     1 <0>        -0.7300
     14 N4         -3.4935   -0.4588    4.0222 N.2       1 <0>        -0.7933
     15 C9         -1.1768   -1.8152   -1.3382 C.3       1 <0>        -0.0886
     16 C10         0.2355   -2.2351   -1.7564 C.3       1 <0>         0.1190
     17 N5          1.0531   -2.6907   -0.6424 N.am      1 <0>        -0.7102
     18 C11         1.7353   -1.8032    0.1271 C.2       1 <0>         0.6046
     19 O2          2.6289   -2.1665    0.8693 O.2       1 <0>        -0.5478
     20 H2         -0.8960    2.0251    0.0255 H         1 <0>         0.1414
     21 H3          1.5865    2.8536   -0.0047 H         1 <0>         0.1693
     22 H4         -1.4202    0.2861    2.4198 H         1 <0>         0.4015
     23 H5         -2.9917    0.2428    4.4660 H         1 <0>         0.3149
     24 H6         -1.7784   -2.7032   -1.1441 H         1 <0>         0.1113
     25 H7         -1.6347   -1.2315   -2.1368 H         1 <0>         0.0784
     26 H8          0.1592   -3.0406   -2.4868 H         1 <0>         0.0824
     27 H9          0.7284   -1.3847   -2.2274 H         1 <0>         0.0658
     28 H10         1.1115   -3.6389   -0.4469 H         1 <0>         0.4052
@<TRIPOS>BOND
     1    1    6 1
     2    1    2 2
     3    1   20 1
     4    2    3 1
     5    2   21 1
     6    3    4 1
     7    3    5 1
     8    5   18 1
     9    5    6 2
    10    6    7 1
    11    7    8 2
    12    7   15 1
    13    8   13 1
    14    8    9 1
    15    9   10 1
    16    9   11 2
    17   11   12 1
    18   12   13 1
    19   12   14 2
    20   13   22 1
    21   14   23 1
    22   15   16 1
    23   15   24 1
    24   15   25 1
    25   16   17 1
    26   16   26 1
    27   16   27 1
    28   17   18 am
    29   17   28 1
    30   18   19 2
@<TRIPOS>MOLECULE
CHEMBL255465__1
   28    30     0     0     0
SMALL
USER_CHARGES

@<TRIPOS>ATOM
      1 C1         -0.0169    1.3974    0.0097 C.2       1 <0>        -0.1837
      2 C2          1.2702    1.8202   -0.0003 C.2       1 <0>         0.0004
      3 N1          2.1021    0.7407   -0.0039 N.pl3     1 <0>        -0.5128
      4 H1          3.0712    0.7746   -0.0262 H         1 <0>         0.4175
      5 C3          1.3523   -0.3881    0.0294 C.2       1 <0>        -0.0610
      6 C4          0.0021   -0.0041    0.0020 C.2       1 <0>        -0.0505
      7 C5         -1.0954   -0.9746   -0.0792 C.2       1 <0>        -0.1179
      8 C6         -1.9958   -1.1127    0.9263 C.2       1 <0>         0.0730
      9 C7         -3.1409   -2.0437    0.9898 C.2       1 <0>         0.5128
     10 O1         -3.4737   -2.8538    0.1403 O.2       1 <0>        -0.5599
     11 N2         -3.7411   -1.8205    2.1670 N.2       1 <0>        -0.7181
     12 C8         -3.1131   -0.8750    2.8320 C.2       1 <0>         0.5699
     13 N3         -2.0413   -0.4096    2.1336 N.pl3     1 <0>        -0.6706
     14 N4         -3.4857   -0.4219    4.0677 N.2       1 <0>        -0.8565
     15 C9         -1.1779   -1.8161   -1.3382 C.3       1 <0>        -0.0822
     16 C10         0.2344   -2.2364   -1.7561 C.3       1 <0>         0.1194
     17 N5          1.0518   -2.6919   -0.6420 N.am      1 <0>        -0.7119
     18 C11         1.7342   -1.8045    0.1274 C.2       1 <0>         0.6056
     19 O2          2.6276   -2.1680    0.8695 O.2       1 <0>        -0.5464
     20 H2         -0.8959    2.0248    0.0255 H         1 <0>         0.1421
     21 H3          1.5877    2.8525   -0.0051 H         1 <0>         0.1694
     22 H4         -1.4251    0.2828    2.4195 H         1 <0>         0.4081
     23 H5         -4.2600   -0.8028    4.5107 H         1 <0>         0.3206
     24 H6         -1.7797   -2.7039   -1.1440 H         1 <0>         0.0999
     25 H7         -1.6356   -1.2324   -2.1370 H         1 <0>         0.0788
     26 H8          0.1580   -3.0419   -2.4864 H         1 <0>         0.0818
     27 H9          0.7275   -1.3860   -2.2271 H         1 <0>         0.0677
     28 H10         1.1098   -3.6401   -0.4462 H         1 <0>         0.4045
@<TRIPOS>BOND
     1    1    6 1
     2    1    2 2
     3    1   20 1
     4    2    3 1
     5    2   21 1
     6    3    4 1
     7    3    5 1
     8    5   18 1
     9    5    6 2
    10    6    7 1
    11    7    8 2
    12    7   15 1
    13    8   13 1
    14    8    9 1
    15    9   10 2
    16    9   11 1
    17   11   12 2
    18   12   13 1
    19   12   14 1
    20   13   22 1
    21   14   23 1
    22   15   16 1
    23   15   24 1
    24   15   25 1
    25   16   17 1
    26   16   26 1
    27   16   27 1
    28   17   18 am
    29   17   28 1
    30   18   19 2
@<TRIPOS>MOLECULE
CHEMBL255465__2
   29    31     0     0     0
SMALL
USER_CHARGES

@<TRIPOS>ATOM
      1 C1         -0.0169    1.3974    0.0097 C.2       1 <0>        -0.1750
      2 C2          1.2702    1.8202   -0.0003 C.2       1 <0>         0.0117
      3 N1          2.1021    0.7407   -0.0039 N.pl3     1 <0>        -0.5030
      4 H1          3.0712    0.7746   -0.0262 H         1 <0>         0.4262
      5 C3          1.3523   -0.3881    0.0294 C.2       1 <0>        -0.0307
      6 C4          0.0021   -0.0041    0.0020 C.2       1 <0>        -0.1099
      7 C5         -1.0954   -0.9746   -0.0792 C.2       1 <0>         0.0238
      8 C6         -1.9958   -1.1127    0.9263 C.2       1 <0>        -0.0099
      9 C7         -3.1409   -2.0437    0.9898 C.2       1 <0>         0.5395
     10 O1         -3.4737   -2.8538    0.1403 O.2       1 <0>        -0.4718
     11 N2         -3.7411   -1.8205    2.1670 N.2       1 <0>        -0.6438
     12 C8         -3.1131   -0.8750    2.8320 C.2       1 <0>         0.6555
     13 N3         -2.0413   -0.4096    2.1336 N.pl3     1 <0>        -0.6639
     14 N4         -3.4857   -0.4219    4.0677 N.pl3     1 <0>        -0.8053
     15 C9         -1.1779   -1.8161   -1.3382 C.3       1 <0>        -0.1059
     16 C10         0.2344   -2.2364   -1.7561 C.3       1 <0>         0.1151
     17 N5          1.0518   -2.6919   -0.6420 N.am      1 <0>        -0.7155
     18 C11         1.7342   -1.8045    0.1274 C.2       1 <0>         0.5968
     19 O2          2.6276   -2.1680    0.8695 O.2       1 <0>        -0.5284
     20 H2         -0.8959    2.0248    0.0255 H         1 <0>         0.1476
     21 H3          1.5877    2.8525   -0.0051 H         1 <0>         0.1779
     22 H4         -1.4251    0.2828    2.4195 H         1 <0>         0.4256
     23 H5         -4.2600   -0.8028    4.5107 H         1 <0>         0.4329
     24 H6         -2.9756    0.2802    4.5009 H         1 <0>         0.4166
     25 H7         -1.7797   -2.7039   -1.1440 H         1 <0>         0.1072
     26 H8         -1.6356   -1.2324   -2.1370 H         1 <0>         0.1042
     27 H9          0.1580   -3.0419   -2.4864 H         1 <0>         0.0956
     28 H10         0.7275   -1.3860   -2.2271 H         1 <0>         0.0765
     29 H11         1.1098   -3.6401   -0.4462 H         1 <0>         0.4103
@<TRIPOS>BOND
     1    1    6 1
     2    1    2 2
     3    1   20 1
     4    2    3 1
     5    2   21 1
     6    3    4 1
     7    3    5 1
     8    5   18 1
     9    5    6 2
    10    6    7 1
    11    7    8 2
    12    7   15 1
    13    8   13 1
    14    8    9 1
    15    9   10 2
    16    9   11 1
    17   11   12 2
    18   12   13 1
    19   12   14 1
    20   13   22 1
    21   14   23 1
    22   14   24 1
    23   15   16 1
    24   15   25 1
    25   15   26 1
    26   16   17 1
    27   16   27 1
    28   16   28 1
    29   17   18 am
    30   17   29 1
    31   18   19 2
@<TRIPOS>MOLECULE
CHEMBL373797
   47    50     0     0     0
SMALL
USER_CHARGES

@<TRIPOS>ATOM
      1 C1         -0.7064    0.9080    0.0874 C.3       1 <0>         0.0571
      2 N1         -0.5104   -0.5394   -0.0254 N.am      1 <0>        -0.6134
      3 C2         -0.3885   -1.3585    1.1831 C.3       1 <0>         0.1581
      4 C3         -1.7545   -1.8309    1.6096 C.ar      1 <0>        -0.1138
      5 C4         -2.5108   -1.0655    2.4774 C.ar      1 <0>        -0.1084
      6 C5         -3.7638   -1.4989    2.8687 C.ar      1 <0>        -0.1252
      7 C6         -4.2608   -2.6974    2.3917 C.ar      1 <0>        -0.1139
      8 C7         -3.5049   -3.4623    1.5231 C.ar      1 <0>        -0.1224
      9 C8         -2.2536   -3.0269    1.1285 C.ar      1 <0>        -0.0920
     10 C9         -0.4422   -1.1175   -1.2410 C.2       1 <0>         0.5903
     11 O1         -0.3842   -2.3292   -1.3361 O.2       1 <0>        -0.5136
     12 C10        -0.4380   -0.2856   -2.4498 C.2       1 <0>        -0.0498
     13 C11        -0.5047   -0.7415   -3.7355 C.2       1 <0>        -0.0580
     14 C12        -0.4725    0.3889   -4.5786 C.2       1 <0>        -0.1407
     15 C13        -0.3867    1.5002   -3.7670 C.2       1 <0>         0.0497
     16 N2         -0.3721    1.0891   -2.4830 N.pl3     1 <0>        -0.5359
     17 H1         -0.3210    1.6689   -1.7070 H         1 <0>         0.4249
     18 C14        -0.5216    0.3831   -6.0563 C.2       1 <0>         0.1879
     19 C15         0.2203   -0.4281   -6.9037 C.2       1 <0>        -0.1954
     20 C16        -0.1433   -0.0984   -8.2220 C.2       1 <0>         0.0720
     21 N3         -1.0435    0.8471   -8.1800 N.2       1 <0>        -0.2882
     22 N4         -1.3077    1.1685   -6.8437 N.pl3     1 <0>        -0.4689
     23 H2         -1.9390    1.8360   -6.5326 H         1 <0>         0.4401
     24 C17         1.2123   -1.4515   -6.4954 C.ar      1 <0>         0.0173
     25 C18         2.2290   -1.1224   -5.5998 C.ar      1 <0>        -0.0975
     26 C19         3.1494   -2.0787   -5.2225 C.ar      1 <0>        -0.1035
     27 C20         3.0654   -3.3625   -5.7309 C.ar      1 <0>        -0.1142
     28 C21         2.0587   -3.6955   -6.6208 C.ar      1 <0>        -0.0303
     29 C22         1.1284   -2.7476   -7.0009 C.ar      1 <0>        -0.1035
     30 Cl1         1.9611   -5.3086   -7.2549 Cl        1 <0>        -0.0721
     31 H3          0.2569    1.4122    0.0104 H         1 <0>         0.0637
     32 H4         -1.3605    1.2498   -0.7147 H         1 <0>         0.0739
     33 H5         -1.1614    1.1391    1.0506 H         1 <0>         0.0885
     34 H6          0.2455   -2.2205    0.9753 H         1 <0>         0.0965
     35 H7          0.0561   -0.7644    1.9814 H         1 <0>         0.0892
     36 H8         -2.1225   -0.1292    2.8500 H         1 <0>         0.1186
     37 H9         -4.3543   -0.9012    3.5472 H         1 <0>         0.1219
     38 H10        -5.2394   -3.0363    2.6979 H         1 <0>         0.1220
     39 H11        -3.8930   -4.3989    1.1508 H         1 <0>         0.1232
     40 H12        -1.6646   -3.6228    0.4470 H         1 <0>         0.1302
     41 H13        -0.5695   -1.7733   -4.0478 H         1 <0>         0.1530
     42 H14        -0.3427    2.5258   -4.1026 H         1 <0>         0.1781
     43 H15         0.2548   -0.5511   -9.1181 H         1 <0>         0.1873
     44 H16         2.2962   -0.1205   -5.2022 H         1 <0>         0.1239
     45 H17         3.9373   -1.8242   -4.5291 H         1 <0>         0.1294
     46 H18         3.7880   -4.1076   -5.4327 H         1 <0>         0.1308
     47 H19         0.3403   -3.0092   -7.6915 H         1 <0>         0.1329
@<TRIPOS>BOND
     1    1    2 1
     2    1   31 1
     3    1   32 1
     4    1   33 1
     5    2    3 1
     6    2   10 am
     7    3    4 1
     8    3   34 1
     9    3   35 1
    10    4    9 ar
    11    4    5 ar
    12    5    6 ar
    13    5   36 1
    14    6    7 ar
    15    6   37 1
    16    7    8 ar
    17    7   38 1
    18    8    9 ar
    19    8   39 1
    20    9   40 1
    21   10   11 2
    22   10   12 1
    23   12   16 1
    24   12   13 2
    25   13   14 1
    26   13   41 1
    27   14   15 2
    28   14   18 1
    29   15   16 1
    30   15   42 1
    31   16   17 1
    32   18   22 1
    33   18   19 2
    34   19   20 1
    35   19   24 1
    36   20   21 2
    37   20   43 1
    38   21   22 1
    39   22   23 1
    40   24   29 ar
    41   24   25 ar
    42   25   26 ar
    43   25   44 1
    44   26   27 ar
    45   26   45 1
    46   27   28 ar
    47   27   46 1
    48   28   29 ar
    49   28   30 1
    50   29   47 1
@<TRIPOS>MOLECULE
CHEMBL373797__1
   47    50     0     0     0
SMALL
USER_CHARGES

@<TRIPOS>ATOM
      1 C1         -0.1727    1.4589    0.0143 C.3       1 <0>         0.0585
      2 N1         -0.0594   -0.0017    0.0045 N.am      1 <0>        -0.6141
      3 C2          0.0998   -0.7325    1.2641 C.3       1 <0>         0.1580
      4 C3         -1.2575   -1.0934    1.8105 C.ar      1 <0>        -0.1126
      5 C4         -1.9143   -0.2231    2.6601 C.ar      1 <0>        -0.1081
      6 C5         -3.1594   -0.5541    3.1613 C.ar      1 <0>        -0.1253
      7 C6         -3.7478   -1.7553    2.8124 C.ar      1 <0>        -0.1145
      8 C7         -3.0914   -2.6253    1.9621 C.ar      1 <0>        -0.1227
      9 C8         -1.8482   -2.2923    1.4575 C.ar      1 <0>        -0.0920
     10 C9         -0.1016   -0.6731   -1.1634 C.2       1 <0>         0.5922
     11 O1         -0.1212   -1.8898   -1.1655 O.2       1 <0>        -0.5181
     12 C10        -0.1239    0.0631   -2.4324 C.2       1 <0>        -0.0548
     13 C11        -0.3257   -0.4771   -3.6715 C.2       1 <0>        -0.0685
     14 C12        -0.2679    0.5817   -4.5983 C.2       1 <0>        -0.1166
     15 C13        -0.0334    1.7289   -3.8947 C.2       1 <0>         0.0642
     16 N2          0.0489    1.4205   -2.5840 N.pl3     1 <0>        -0.5395
     17 H1          0.2065    2.0524   -1.8651 H         1 <0>         0.4231
     18 C14        -0.4313    0.4714   -6.0693 C.2       1 <0>         0.1760
     19 C15        -1.0418    1.4305   -6.9156 C.2       1 <0>        -0.2034
     20 C16        -0.9864    0.9472   -8.1889 C.2       1 <0>         0.0820
     21 N3         -0.3734   -0.2533   -8.1485 N.pl3     1 <0>        -0.4699
     22 N4         -0.0305   -0.5306   -6.8198 N.2       1 <0>        -0.2803
     23 H2         -0.1975   -0.8263   -8.9112 H         1 <0>         0.4444
     24 C17        -1.6334    2.7237   -6.4929 C.ar      1 <0>         0.0159
     25 C18        -2.5375    2.7659   -5.4330 C.ar      1 <0>        -0.1003
     26 C19        -3.0848    3.9713   -5.0432 C.ar      1 <0>        -0.1049
     27 C20        -2.7381    5.1369   -5.7023 C.ar      1 <0>        -0.1158
     28 C21        -1.8411    5.1015   -6.7559 C.ar      1 <0>        -0.0319
     29 C22        -1.2827    3.9009   -7.1502 C.ar      1 <0>        -0.1070
     30 Cl1        -1.4121    6.5687   -7.5786 Cl        1 <0>        -0.0707
     31 H3          0.8068    1.9005   -0.1689 H         1 <0>         0.0622
     32 H4         -0.8653    1.7748   -0.7658 H         1 <0>         0.0752
     33 H5         -0.5439    1.7880    0.9848 H         1 <0>         0.0873
     34 H6          0.6735   -1.6421    1.0865 H         1 <0>         0.0956
     35 H7          0.6262   -0.1057    1.9839 H         1 <0>         0.0887
     36 H8         -1.4546    0.7154    2.9327 H         1 <0>         0.1186
     37 H9         -3.6722    0.1256    3.8257 H         1 <0>         0.1217
     38 H10        -4.7202   -2.0143    3.2046 H         1 <0>         0.1216
     39 H11        -3.5510   -3.5639    1.6898 H         1 <0>         0.1227
     40 H12        -1.3370   -2.9704    0.7902 H         1 <0>         0.1300
     41 H13        -0.4966   -1.5193   -3.8974 H         1 <0>         0.1520
     42 H14         0.0653    2.7181   -4.3168 H         1 <0>         0.1749
     43 H15        -1.3661    1.4382   -9.0727 H         1 <0>         0.1811
     44 H16        -2.8097    1.8565   -4.9179 H         1 <0>         0.1295
     45 H17        -3.7855    4.0045   -4.2220 H         1 <0>         0.1315
     46 H18        -3.1692    6.0780   -5.3940 H         1 <0>         0.1317
     47 H19        -0.5794    3.8743   -7.9694 H         1 <0>         0.1326
@<TRIPOS>BOND
     1    1    2 1
     2    1   31 1
     3    1   32 1
     4    1   33 1
     5    2    3 1
     6    2   10 am
     7    3    4 1
     8    3   34 1
     9    3   35 1
    10    4    9 ar
    11    4    5 ar
    12    5    6 ar
    13    5   36 1
    14    6    7 ar
    15    6   37 1
    16    7    8 ar
    17    7   38 1
    18    8    9 ar
    19    8   39 1
    20    9   40 1
    21   10   11 2
    22   10   12 1
    23   12   16 1
    24   12   13 2
    25   13   14 1
    26   13   41 1
    27   14   15 2
    28   14   18 1
    29   15   16 1
    30   15   42 1
    31   16   17 1
    32   18   22 2
    33   18   19 1
    34   19   24 1
    35   19   20 2
    36   20   43 1
    37   20   21 1
    38   21   22 1
    39   21   23 1
    40   24   29 ar
    41   24   25 ar
    42   25   26 ar
    43   25   44 1
    44   26   27 ar
    45   26   45 1
    46   27   28 ar
    47   27   46 1
    48   28   29 ar
    49   28   30 1
    50   29   47 1
@<TRIPOS>MOLECULE
CHEMBL223471
   48    51     0     0     0
SMALL
USER_CHARGES

@<TRIPOS>ATOM
      1 C1         -0.4300    2.3747   -2.4221 C.3       1 <0>         0.0255
      2 O1         -0.4387    0.9684   -2.1687 O.3       1 <0>        -0.3159
      3 C2          0.2602    0.1821   -3.0290 C.ar      1 <0>         0.1384
      4 C3          0.9453    0.7529   -4.0918 C.ar      1 <0>        -0.2107
      5 C4          1.6554   -0.0485   -4.9646 C.ar      1 <0>        -0.0582
      6 C5          1.6835   -1.4185   -4.7799 C.ar      1 <0>        -0.1531
      7 C6          1.0012   -1.9898   -3.7217 C.ar      1 <0>        -0.0588
      8 C7          0.2946   -1.1922   -2.8425 C.ar      1 <0>        -0.1536
      9 C8          2.4586   -2.2904   -5.7339 C.3       1 <0>         0.1677
     10 N1          3.8327   -2.4429   -5.2494 N.am      1 <0>        -0.7283
     11 C9          4.7144   -3.1864   -5.9467 C.2       1 <0>         0.5879
     12 O2          4.3692   -3.7310   -6.9787 O.2       1 <0>        -0.5186
     13 C10         6.0908   -3.3392   -5.4614 C.2       1 <0>        -0.0518
     14 C11         7.0798   -4.0565   -6.0719 C.2       1 <0>        -0.0579
     15 C12         8.2346   -3.9354   -5.2711 C.2       1 <0>        -0.1407
     16 C13         7.9020   -3.1419   -4.1937 C.2       1 <0>         0.0561
     17 N2          6.6091   -2.7794   -4.3155 N.pl3     1 <0>        -0.5287
     18 H1          6.1216   -2.2164   -3.6940 H         1 <0>         0.4209
     19 C14         9.5549   -4.5454   -5.5373 C.2       1 <0>         0.1878
     20 C15         9.7959   -5.8573   -5.9213 C.2       1 <0>        -0.1958
     21 C16        11.1878   -6.0022   -6.0632 C.2       1 <0>         0.0723
     22 N3         11.7546   -4.8587   -5.7852 N.2       1 <0>        -0.2882
     23 N4         10.7647   -3.9249   -5.4579 N.pl3     1 <0>        -0.4691
     24 H2         10.9144   -2.9979   -5.2147 H         1 <0>         0.4401
     25 C17         8.7757   -6.9104   -6.1406 C.ar      1 <0>         0.0167
     26 C18         7.8682   -7.2268   -5.1303 C.ar      1 <0>        -0.0974
     27 C19         6.9203   -8.2075   -5.3396 C.ar      1 <0>        -0.1043
     28 C20         6.8687   -8.8768   -6.5491 C.ar      1 <0>        -0.1136
     29 C21         7.7670   -8.5678   -7.5560 C.ar      1 <0>        -0.0305
     30 C22         8.7164   -7.5838   -7.3594 C.ar      1 <0>        -0.1024
     31 Cl1         7.6960   -9.4134   -9.0705 Cl        1 <0>        -0.0718
     32 H3          0.5952    2.7435   -2.3889 H         1 <0>         0.0568
     33 H4         -0.8543    2.5691   -3.4072 H         1 <0>         0.0578
     34 H5         -1.0241    2.8843   -1.6636 H         1 <0>         0.1031
     35 H6          0.9231    1.8229   -4.2369 H         1 <0>         0.1312
     36 H7          2.1888    0.3954   -5.7921 H         1 <0>         0.1276
     37 H8          1.0244   -3.0602   -3.5798 H         1 <0>         0.1326
     38 H9         -0.2345   -1.6386   -2.0136 H         1 <0>         0.1343
     39 H10         1.9848   -3.2700   -5.7974 H         1 <0>         0.0808
     40 H11         2.4705   -1.8279   -6.7208 H         1 <0>         0.0795
     41 H12         4.1079   -2.0088   -4.4268 H         1 <0>         0.3947
     42 H13         6.9937   -4.6121   -6.9940 H         1 <0>         0.1538
     43 H14         8.5655   -2.8560   -3.3908 H         1 <0>         0.1786
     44 H15        11.7015   -6.9068   -6.3534 H         1 <0>         0.1873
     45 H16         7.9075   -6.7054   -4.1854 H         1 <0>         0.1241
     46 H17         6.2174   -8.4532   -4.5573 H         1 <0>         0.1298
     47 H18         6.1250   -9.6436   -6.7084 H         1 <0>         0.1310
     48 H19         9.4139   -7.3397   -8.1470 H         1 <0>         0.1330
@<TRIPOS>BOND
     1    1    2 1
     2    1   32 1
     3    1   33 1
     4    1   34 1
     5    2    3 1
     6    3    8 ar
     7    3    4 ar
     8    4    5 ar
     9    4   35 1
    10    5    6 ar
    11    5   36 1
    12    6    7 ar
    13    6    9 1
    14    7    8 ar
    15    7   37 1
    16    8   38 1
    17    9   10 1
    18    9   39 1
    19    9   40 1
    20   10   11 am
    21   10   41 1
    22   11   12 2
    23   11   13 1
    24   13   17 1
    25   13   14 2
    26   14   15 1
    27   14   42 1
    28   15   16 2
    29   15   19 1
    30   16   17 1
    31   16   43 1
    32   17   18 1
    33   19   23 1
    34   19   20 2
    35   20   21 1
    36   20   25 1
    37   21   22 2
    38   21   44 1
    39   22   23 1
    40   23   24 1
    41   25   30 ar
    42   25   26 ar
    43   26   27 ar
    44   26   45 1
    45   27   28 ar
    46   27   46 1
    47   28   29 ar
    48   28   47 1
    49   29   30 ar
    50   29   31 1
    51   30   48 1
@<TRIPOS>MOLECULE
CHEMBL223471__1
   48    51     0     0     0
SMALL
USER_CHARGES

@<TRIPOS>ATOM
      1 C1         -0.0173    1.4248    0.0099 C.3       1 <0>         0.0256
      2 O1          0.0021   -0.0041    0.0020 O.3       1 <0>        -0.3161
      3 C2          0.6058   -0.6071   -1.0557 C.ar      1 <0>         0.1379
      4 C3          1.1730    0.1607   -2.0624 C.ar      1 <0>        -0.2106
      5 C4          1.7865   -0.4547   -3.1363 C.ar      1 <0>        -0.0581
      6 C5          1.8352   -1.8346   -3.2086 C.ar      1 <0>        -0.1522
      7 C6          1.2702   -2.6021   -2.2068 C.ar      1 <0>        -0.0590
      8 C7          0.6609   -1.9915   -1.1277 C.ar      1 <0>        -0.1537
      9 C8          2.5046   -2.5033   -4.3815 C.3       1 <0>         0.1678
     10 N1          3.9227   -2.7134   -4.0797 N.am      1 <0>        -0.7289
     11 C9          4.7256   -3.3002   -4.9894 C.2       1 <0>         0.5900
     12 O2          4.2725   -3.6555   -6.0615 O.2       1 <0>        -0.5232
     13 C10         6.1458   -3.5106   -4.6872 C.2       1 <0>        -0.0568
     14 C11         7.0676   -4.0851   -5.5169 C.2       1 <0>        -0.0680
     15 C12         8.2975   -4.0856   -4.8308 C.2       1 <0>        -0.1173
     16 C13         8.0846   -3.5127   -3.6091 C.2       1 <0>         0.0702
     17 N2          6.7860   -3.1586   -3.5203 N.pl3     1 <0>        -0.5331
     18 H1          6.3701   -2.7279   -2.7572 H         1 <0>         0.4196
     19 C14         9.5878   -4.6122   -5.3413 C.2       1 <0>         0.1760
     20 C15        10.8725   -4.0777   -5.0721 C.2       1 <0>        -0.2035
     21 C16        11.7834   -4.8519   -5.7269 C.2       1 <0>         0.0822
     22 N3         11.1095   -5.8236   -6.3750 N.pl3     1 <0>        -0.4697
     23 N4          9.7428   -5.6607   -6.1188 N.2       1 <0>        -0.2801
     24 H2         11.5048   -6.5192   -6.9234 H         1 <0>         0.4445
     25 C17        11.1713   -2.8920   -4.2318 C.ar      1 <0>         0.0156
     26 C18        10.4804   -1.6988   -4.4352 C.ar      1 <0>        -0.1003
     27 C19        10.7614   -0.5988   -3.6508 C.ar      1 <0>        -0.1048
     28 C20        11.7273   -0.6781   -2.6638 C.ar      1 <0>        -0.1159
     29 C21        12.4172   -1.8603   -2.4572 C.ar      1 <0>        -0.0320
     30 C22        12.1392   -2.9692   -3.2329 C.ar      1 <0>        -0.1070
     31 Cl1        13.6287   -1.9514   -1.2172 Cl        1 <0>        -0.0707
     32 H3          1.0053    1.8021    0.0021 H         1 <0>         0.0569
     33 H4         -0.5445    1.7859   -0.8732 H         1 <0>         0.0575
     34 H5         -0.5275    1.7763    0.9067 H         1 <0>         0.1028
     35 H6          1.1347    1.2385   -2.0068 H         1 <0>         0.1310
     36 H7          2.2283    0.1425   -3.9203 H         1 <0>         0.1278
     37 H8          1.3092   -3.6798   -2.2657 H         1 <0>         0.1325
     38 H9          0.2237   -2.5913   -0.3432 H         1 <0>         0.1340
     39 H10         2.0276   -3.4646   -4.5726 H         1 <0>         0.0799
     40 H11         2.4108   -1.8695   -5.2632 H         1 <0>         0.0791
     41 H12         4.2839   -2.4302   -3.2252 H         1 <0>         0.3951
     42 H13         6.8867   -4.4673   -6.5107 H         1 <0>         0.1530
     43 H14         8.8321   -3.3642   -2.8439 H         1 <0>         0.1754
     44 H15        12.8543   -4.7118   -5.7269 H         1 <0>         0.1812
     45 H16         9.7265   -1.6350   -5.2059 H         1 <0>         0.1298
     46 H17        10.2264    0.3261   -3.8080 H         1 <0>         0.1315
     47 H18        11.9442    0.1853   -2.0524 H         1 <0>         0.1315
     48 H19        12.6746   -3.8926   -3.0684 H         1 <0>         0.1326
@<TRIPOS>BOND
     1    1    2 1
     2    1   32 1
     3    1   33 1
     4    1   34 1
     5    2    3 1
     6    3    8 ar
     7    3    4 ar
     8    4    5 ar
     9    4   35 1
    10    5    6 ar
    11    5   36 1
    12    6    7 ar
    13    6    9 1
    14    7    8 ar
    15    7   37 1
    16    8   38 1
    17    9   10 1
    18    9   39 1
    19    9   40 1
    20   10   11 am
    21   10   41 1
    22   11   12 2
    23   11   13 1
    24   13   17 1
    25   13   14 2
    26   14   15 1
    27   14   42 1
    28   15   16 2
    29   15   19 1
    30   16   17 1
    31   16   43 1
    32   17   18 1
    33   19   23 2
    34   19   20 1
    35   20   25 1
    36   20   21 2
    37   21   44 1
    38   21   22 1
    39   22   23 1
    40   22   24 1
    41   25   30 ar
    42   25   26 ar
    43   26   27 ar
    44   26   45 1
    45   27   28 ar
    46   27   46 1
    47   28   29 ar
    48   28   47 1
    49   29   30 ar
    50   29   31 1
    51   30   48 1
@<TRIPOS>MOLECULE
CHEMBL220343
   43    46     0     0     0
SMALL
USER_CHARGES

@<TRIPOS>ATOM
      1 C1          0.4585    0.4884    0.9561 C.ar      1 <0>        -0.1056
      2 C2          1.6076    1.2518    1.0011 C.ar      1 <0>        -0.0999
      3 C3          2.4549    1.2978   -0.1049 C.ar      1 <0>         0.0181
      4 C4          2.1363    0.5716   -1.2514 C.ar      1 <0>        -0.1040
      5 C5          0.9840   -0.1888   -1.2854 C.ar      1 <0>        -0.0324
      6 C6          0.1465   -0.2303   -0.1835 C.ar      1 <0>        -0.1159
      7 Cl1         0.5845   -1.0937   -2.7121 Cl        1 <0>        -0.0709
      8 C7          3.6902    2.1165   -0.0621 C.2       1 <0>        -0.2045
      9 C8          4.0508    3.1299   -0.9685 C.2       1 <0>         0.0723
     10 N1          5.2047    3.6215   -0.6039 N.2       1 <0>        -0.2870
     11 N2          5.6429    2.9556    0.5466 N.pl3     1 <0>        -0.4646
     12 H1          6.4701    3.1267    1.0233 H         1 <0>         0.4424
     13 C9          4.7029    2.0294    0.8832 C.2       1 <0>         0.1922
     14 C10         4.7529    1.1045    2.0356 C.2       1 <0>        -0.1450
     15 C11         5.0814    1.4409    3.3654 C.2       1 <0>        -0.0778
     16 C12         5.0056    0.2925    4.1007 C.2       1 <0>        -0.0519
     17 N3          4.6408   -0.7344    3.2595 N.pl3     1 <0>        -0.5287
     18 H2          4.5146   -1.6594    3.5227 H         1 <0>         0.4215
     19 C13         4.4814   -0.2472    2.0125 C.2       1 <0>         0.0819
     20 C14         5.2686    0.1735    5.5394 C.2       1 <0>         0.5903
     21 O1          5.5864    1.1561    6.1831 O.2       1 <0>        -0.5201
     22 N4          5.1581   -1.0240    6.1478 N.am      1 <0>        -0.7291
     23 C15         5.4207   -1.1428    7.5842 C.3       1 <0>         0.1679
     24 C16         5.2292   -2.5747    8.0131 C.ar      1 <0>        -0.1677
     25 C17         3.9863   -3.0206    8.4366 C.ar      1 <0>        -0.0554
     26 C18         3.8570   -4.3460    8.8219 C.ar      1 <0>        -0.1729
     27 C19         4.9633   -5.1731    8.7715 C.ar      1 <0>         0.1089
     28 N5          6.1303   -4.7145    8.3637 N.ar      1 <0>        -0.4838
     29 C20         6.2887   -3.4614    7.9840 C.ar      1 <0>         0.1193
     30 H3         -0.1960    0.4488    1.8142 H         1 <0>         0.1304
     31 H4          1.8497    1.8128    1.8916 H         1 <0>         0.1270
     32 H5          2.7889    0.6038   -2.1113 H         1 <0>         0.1340
     33 H6         -0.7536   -0.8264   -0.2139 H         1 <0>         0.1310
     34 H7          3.4713    3.4477   -1.8226 H         1 <0>         0.1870
     35 H8          5.3438    2.4220    3.7330 H         1 <0>         0.1535
     36 H9          4.1925   -0.8188    1.1429 H         1 <0>         0.1804
     37 H10         4.9048   -1.8072    5.6347 H         1 <0>         0.3955
     38 H11         6.4452   -0.8349    7.7930 H         1 <0>         0.0854
     39 H12         4.7300   -0.5034    8.1339 H         1 <0>         0.0839
     40 H13         3.1393   -2.3512    8.4659 H         1 <0>         0.1375
     41 H14         2.9039   -4.7274    9.1575 H         1 <0>         0.1398
     42 H15         4.8708   -6.2069    9.0700 H         1 <0>         0.1597
     43 H16         7.2587   -3.1232    7.6509 H         1 <0>         0.1574
@<TRIPOS>BOND
     1    1    6 ar
     2    1    2 ar
     3    1   30 1
     4    2    3 ar
     5    2   31 1
     6    3    4 ar
     7    3    8 1
     8    4    5 ar
     9    4   32 1
    10    5    6 ar
    11    5    7 1
    12    6   33 1
    13    8   13 2
    14    8    9 1
    15    9   10 2
    16    9   34 1
    17   10   11 1
    18   11   12 1
    19   11   13 1
    20   13   14 1
    21   14   19 2
    22   14   15 1
    23   15   16 2
    24   15   35 1
    25   16   17 1
    26   16   20 1
    27   17   18 1
    28   17   19 1
    29   19   36 1
    30   20   21 2
    31   20   22 am
    32   22   23 1
    33   22   37 1
    34   23   24 1
    35   23   38 1
    36   23   39 1
    37   24   29 ar
    38   24   25 ar
    39   25   26 ar
    40   25   40 1
    41   26   27 ar
    42   26   41 1
    43   27   28 ar
    44   27   42 1
    45   28   29 ar
    46   29   43 1
@<TRIPOS>MOLECULE
CHEMBL220343__1
   43    46     0     0     0
SMALL
USER_CHARGES

@<TRIPOS>ATOM
      1 C1         -0.0167    1.3786    0.0096 C.ar      1 <0>        -0.1039
      2 C2          1.1676    2.0878    0.0021 C.ar      1 <0>        -0.1107
      3 C3          2.3840    1.4085   -0.0131 C.ar      1 <0>         0.0145
      4 C4          2.3983    0.0151   -0.0207 C.ar      1 <0>        -0.0966
      5 C5          1.2076   -0.6849   -0.0131 C.ar      1 <0>        -0.0327
      6 C6          0.0021   -0.0041    0.0020 C.ar      1 <0>        -0.1163
      7 Cl1         1.2227   -2.4208   -0.0230 Cl        1 <0>        -0.0703
      8 C7          3.6597    2.1660   -0.0217 C.2       1 <0>        -0.2032
      9 C8          3.9817    3.1931   -0.8578 C.2       1 <0>         0.0825
     10 N1          5.2257    3.6075   -0.5427 N.pl3     1 <0>        -0.4698
     11 N2          5.6983    2.8234    0.5164 N.2       1 <0>        -0.2801
     12 H1          5.7109    4.3266   -0.9767 H         1 <0>         0.4446
     13 C9          4.7639    1.9580    0.8421 C.2       1 <0>         0.1754
     14 C10         4.8515    0.9411    1.9196 C.2       1 <0>        -0.1177
     15 C11         6.0090    0.2429    2.3146 C.2       1 <0>        -0.0664
     16 C12         5.6459   -0.5903    3.3354 C.2       1 <0>        -0.0577
     17 N3          4.3004   -0.4148    3.5685 N.pl3     1 <0>        -0.5327
     18 H2          3.7794   -0.8811    4.2408 H         1 <0>         0.4193
     19 C13         3.8255    0.5150    2.7144 C.2       1 <0>         0.0716
     20 C14         6.5335   -1.5100    4.0557 C.2       1 <0>         0.5921
     21 O1          7.7114   -1.5775    3.7574 O.2       1 <0>        -0.5211
     22 N4          6.0445   -2.2801    5.0478 N.am      1 <0>        -0.7303
     23 C15         6.9308   -3.1985    5.7669 C.3       1 <0>         0.1679
     24 C16         6.1431   -3.9366    6.8185 C.ar      1 <0>        -0.1662
     25 C17         6.0212   -3.4168    8.0983 C.ar      1 <0>        -0.0558
     26 C18         5.2871   -4.1303    9.0331 C.ar      1 <0>        -0.1733
     27 C19         4.7053   -5.3277    8.6611 C.ar      1 <0>         0.1079
     28 N5          4.8427   -5.7920    7.4346 N.ar      1 <0>        -0.4840
     29 C20         5.5285   -5.1372    6.5180 C.ar      1 <0>         0.1194
     30 H3         -0.9598    1.9047    0.0260 H         1 <0>         0.1327
     31 H4          1.1513    3.1677    0.0077 H         1 <0>         0.1287
     32 H5          3.3383   -0.5164   -0.0328 H         1 <0>         0.1338
     33 H6         -0.9269   -0.5549    0.0079 H         1 <0>         0.1317
     34 H7          3.3526    3.6020   -1.6347 H         1 <0>         0.1815
     35 H8          6.9969    0.3459    1.8906 H         1 <0>         0.1534
     36 H9          2.8041    0.8626    2.6654 H         1 <0>         0.1751
     37 H10         5.1056   -2.2264    5.2856 H         1 <0>         0.3952
     38 H11         7.3595   -3.9139    5.0652 H         1 <0>         0.0849
     39 H12         7.7313   -2.6325    6.2433 H         1 <0>         0.0831
     40 H13         6.4873   -2.4785    8.3606 H         1 <0>         0.1374
     41 H14         5.1716   -3.7556   10.0393 H         1 <0>         0.1392
     42 H15         4.1318   -5.8896    9.3834 H         1 <0>         0.1591
     43 H16         5.6147   -5.5464    5.5222 H         1 <0>         0.1577
@<TRIPOS>BOND
     1    1    6 ar
     2    1    2 ar
     3    1   30 1
     4    2    3 ar
     5    2   31 1
     6    3    4 ar
     7    3    8 1
     8    4    5 ar
     9    4   32 1
    10    5    6 ar
    11    5    7 1
    12    6   33 1
    13    8   13 1
    14    8    9 2
    15    9   34 1
    16    9   10 1
    17   10   11 1
    18   10   12 1
    19   11   13 2
    20   13   14 1
    21   14   19 2
    22   14   15 1
    23   15   16 2
    24   15   35 1
    25   16   17 1
    26   16   20 1
    27   17   18 1
    28   17   19 1
    29   19   36 1
    30   20   21 2
    31   20   22 am
    32   22   23 1
    33   22   37 1
    34   23   24 1
    35   23   38 1
    36   23   39 1
    37   24   29 ar
    38   24   25 ar
    39   25   26 ar
    40   25   40 1
    41   26   27 ar
    42   26   41 1
    43   27   28 ar
    44   27   42 1
    45   28   29 ar
    46   29   43 1
@<TRIPOS>MOLECULE
CHEMBL571038
   54    57     0     0     0
SMALL
USER_CHARGES

@<TRIPOS>ATOM
      1 C1          0.2223    1.5009   -0.0088 C.3       1 <0>        -0.1017
      2 C2          0.1781   -0.0054   -0.0120 C.ar      1 <0>        -0.2371
      3 C3         -0.0454   -0.7041   -1.1839 C.ar      1 <0>         0.1897
      4 N1         -0.0785   -2.0274   -1.1531 N.ar      1 <0>        -0.5577
      5 C4          0.0992   -2.6882   -0.0181 C.ar      1 <0>         0.5592
      6 N2          0.3155   -2.0591    1.1263 N.ar      1 <0>        -0.5500
      7 C5          0.3679   -0.7292    1.1692 C.ar      1 <0>         0.3000
      8 C6          0.6169   -0.0270    2.4501 C.2       1 <0>        -0.1546
      9 C7          0.1762   -0.4332    3.7261 C.2       1 <0>        -0.0518
     10 C8          0.6240    0.4968    4.6198 C.2       1 <0>        -0.0599
     11 N3          1.3247    1.4578    3.9259 N.pl3     1 <0>        -0.5287
     12 H1          1.7517    2.2357    4.3177 H         1 <0>         0.4212
     13 C9          1.3274    1.1415    2.6171 C.2       1 <0>         0.0713
     14 C10         0.3973    0.4761    6.0696 C.2       1 <0>         0.5919
     15 O1         -0.2413   -0.4294    6.5727 O.2       1 <0>        -0.5243
     16 N4          0.8963    1.4600    6.8439 N.am      1 <0>        -0.7188
     17 C11         0.6699    1.4393    8.2911 C.3       1 <0>         0.1925
     18 H2          0.6752    0.4083    8.6450 H         1 <0>         0.1122
     19 C12        -0.6839    2.0793    8.6048 C.3       1 <0>         0.0676
     20 O2         -0.6513    3.4624    8.2470 O.3       1 <0>        -0.5670
     21 C13         1.7634    2.2129    8.9817 C.ar      1 <0>        -0.0931
     22 C14         2.2272    3.3937    8.4326 C.ar      1 <0>        -0.0918
     23 C15         3.2302    4.1034    9.0661 C.ar      1 <0>        -0.1209
     24 C16         3.7690    3.6325   10.2488 C.ar      1 <0>        -0.1155
     25 C17         3.3045    2.4522   10.7984 C.ar      1 <0>        -0.1183
     26 C18         2.2986    1.7447   10.1671 C.ar      1 <0>        -0.1083
     27 N5          0.0571   -4.0728   -0.0296 N.pl3     1 <0>        -0.6359
     28 C19        -0.0448   -4.7594   -1.2440 C.ar      1 <0>         0.1820
     29 C20         0.5341   -4.2334   -2.3916 C.ar      1 <0>        -0.1078
     30 C21         0.4322   -4.9139   -3.5891 C.ar      1 <0>        -0.0931
     31 C22        -0.2458   -6.1179   -3.6470 C.ar      1 <0>        -0.1290
     32 C23        -0.8241   -6.6449   -2.5069 C.ar      1 <0>        -0.0886
     33 C24        -0.7207   -5.9723   -1.3038 C.ar      1 <0>        -0.0720
     34 Cl1        -1.4401   -6.6380    0.1289 Cl        1 <0>        -0.0657
     35 H3          1.2442    1.8348   -0.1885 H         1 <0>         0.0700
     36 H4         -0.4288    1.8852   -0.7939 H         1 <0>         0.0702
     37 H5         -0.1165    1.8723    0.9583 H         1 <0>         0.0738
     38 H6         -0.1919   -0.1761   -2.1146 H         1 <0>         0.1710
     39 H7         -0.4060   -1.3139    3.9538 H         1 <0>         0.1552
     40 H8          1.8035    1.7090    1.8312 H         1 <0>         0.1845
     41 H9          1.4053    2.1818    6.4429 H         1 <0>         0.3963
     42 H10        -1.4648    1.5750    8.0355 H         1 <0>         0.0577
     43 H11        -0.8924    1.9845    9.6704 H         1 <0>         0.0587
     44 H12        -1.4785    3.9327    8.4188 H         1 <0>         0.3810
     45 H13         1.8063    3.7616    7.5086 H         1 <0>         0.1207
     46 H14         3.5931    5.0255    8.6367 H         1 <0>         0.1230
     47 H15         4.5531    4.1866   10.7433 H         1 <0>         0.1229
     48 H16         3.7257    2.0842   11.7222 H         1 <0>         0.1248
     49 H17         1.9331    0.8245   10.5984 H         1 <0>         0.1243
     50 H18         0.0982   -4.5662    0.8045 H         1 <0>         0.4256
     51 H19         1.0632   -3.2929   -2.3477 H         1 <0>         0.1445
     52 H20         0.8823   -4.5051   -4.4816 H         1 <0>         0.1314
     53 H21        -0.3242   -6.6475   -4.5849 H         1 <0>         0.1323
     54 H22        -1.3534   -7.5850   -2.5556 H         1 <0>         0.1363
@<TRIPOS>BOND
     1    1    2 1
     2    1   35 1
     3    1   36 1
     4    1   37 1
     5    2    7 ar
     6    2    3 ar
     7    3    4 ar
     8    3   38 1
     9    4    5 ar
    10    5    6 ar
    11    5   27 1
    12    6    7 ar
    13    7    8 1
    14    8   13 2
    15    8    9 1
    16    9   10 2
    17    9   39 1
    18   10   11 1
    19   10   14 1
    20   11   12 1
    21   11   13 1
    22   13   40 1
    23   14   15 2
    24   14   16 am
    25   16   17 1
    26   16   41 1
    27   17   18 1
    28   17   19 1
    29   17   21 1
    30   19   20 1
    31   19   42 1
    32   19   43 1
    33   20   44 1
    34   21   26 ar
    35   21   22 ar
    36   22   23 ar
    37   22   45 1
    38   23   24 ar
    39   23   46 1
    40   24   25 ar
    41   24   47 1
    42   25   26 ar
    43   25   48 1
    44   26   49 1
    45   27   28 1
    46   27   50 1
    47   28   33 ar
    48   28   29 ar
    49   29   30 ar
    50   29   51 1
    51   30   31 ar
    52   30   52 1
    53   31   32 ar
    54   31   53 1
    55   32   33 ar
    56   32   54 1
    57   33   34 1
@<TRIPOS>MOLECULE
CHEMBL599428
   57    61     0     0     0
SMALL
USER_CHARGES

@<TRIPOS>ATOM
      1 C1          0.8763    3.7362    0.6428 C.3       1 <0>         0.0878
      2 N1          1.0566    2.3253    0.9937 N.pl3     1 <0>        -0.2385
      3 C2          1.0832    1.3054    0.1146 C.2       1 <0>         0.0325
      4 C3          1.2939    0.1526    0.8414 C.2       1 <0>        -0.1044
      5 C4          1.3640    0.5559    2.1750 C.2       1 <0>        -0.0151
      6 N2          1.2194    1.8727    2.1918 N.2       1 <0>        -0.2488
      7 C5          1.5669   -0.3199    3.3475 C.2       1 <0>         0.6124
      8 O1          1.6914   -1.5196    3.1957 O.2       1 <0>        -0.5294
      9 N3          1.6138    0.2112    4.5853 N.am      1 <0>        -0.8412
     10 C6          1.4217   -1.1962    0.1958 C.3       1 <0>        -0.0498
     11 C7          0.5671   -1.2459   -1.0710 C.3       1 <0>        -0.0626
     12 C8          0.7288   -0.0204   -1.9223 C.ar      1 <0>        -0.2252
     13 C9          0.9572    1.2400   -1.3514 C.ar      1 <0>         0.2925
     14 N4          1.0571    2.3083   -2.1280 N.ar      1 <0>        -0.5651
     15 C10         0.9637    2.1837   -3.4454 C.ar      1 <0>         0.5708
     16 N5          0.7723    1.0045   -4.0189 N.ar      1 <0>        -0.5641
     17 C11         0.6502   -0.1014   -3.2998 C.ar      1 <0>         0.2017
     18 N6          1.0693    3.3122   -4.2399 N.pl3     1 <0>        -0.6938
     19 C12         0.9687    3.1945   -5.6967 C.3       1 <0>         0.1640
     20 C13         2.3395    2.8363   -6.2751 C.3       1 <0>        -0.1437
     21 C14         2.2232    2.6801   -7.7946 C.3       1 <0>         0.1005
     22 N7          1.6343    3.9052   -8.3523 N.am      1 <0>        -0.6082
     23 C15         0.3600    4.3894   -7.8041 C.3       1 <0>         0.1171
     24 C16         0.4972    4.5265   -6.2846 C.3       1 <0>        -0.1433
     25 C17         2.2515    4.5724   -9.3474 C.2       1 <0>         0.5636
     26 O2          1.7211    5.5452   -9.8473 O.2       1 <0>        -0.5306
     27 C18         3.5738    4.1212   -9.8310 C.ar      1 <0>        -0.1279
     28 C19         3.7728    2.7853  -10.1831 C.ar      1 <0>        -0.0928
     29 C20         5.0090    2.3709  -10.6341 C.ar      1 <0>        -0.1230
     30 C21         6.0502    3.2761  -10.7373 C.ar      1 <0>        -0.0984
     31 C22         5.8597    4.6017  -10.3896 C.ar      1 <0>        -0.1216
     32 C23         4.6268    5.0304   -9.9430 C.ar      1 <0>        -0.0708
     33 H1          1.8491    4.1917    0.4578 H         1 <0>         0.0911
     34 H2          0.2630    3.8118   -0.2551 H         1 <0>         0.1040
     35 H3          0.3827    4.2548    1.4646 H         1 <0>         0.0982
     36 H4          1.5144    1.1685    4.7064 H         1 <0>         0.4079
     37 H5          1.7470   -0.3638    5.3550 H         1 <0>         0.4081
     38 H6          2.4649   -1.3767   -0.0634 H         1 <0>         0.0822
     39 H7          1.0838   -1.9645    0.8913 H         1 <0>         0.1018
     40 H8          0.8527   -2.1209   -1.6548 H         1 <0>         0.0877
     41 H9         -0.4806   -1.3414   -0.7859 H         1 <0>         0.0796
     42 H10         0.4920   -1.0539   -3.7836 H         1 <0>         0.1743
     43 H11         1.2098    4.1811   -3.8321 H         1 <0>         0.4126
     44 H12         0.2526    2.4124   -5.9492 H         1 <0>         0.0966
     45 H13         3.0503    3.6298   -6.0444 H         1 <0>         0.0681
     46 H14         2.6852    1.8993   -5.8384 H         1 <0>         0.0831
     47 H15         3.2132    2.5229   -8.2226 H         1 <0>         0.0991
     48 H16         1.5832    1.8287   -8.0264 H         1 <0>         0.0774
     49 H17         0.1207    5.3600   -8.2385 H         1 <0>         0.1004
     50 H18        -0.4319    3.6774   -8.0368 H         1 <0>         0.0750
     51 H19        -0.4684    4.7925   -5.8546 H         1 <0>         0.0855
     52 H20         1.2254    5.3041   -6.0537 H         1 <0>         0.0743
     53 H21         2.9611    2.0776  -10.1022 H         1 <0>         0.1299
     54 H22         5.1644    1.3375  -10.9068 H         1 <0>         0.1306
     55 H23         7.0161    2.9465  -11.0906 H         1 <0>         0.1282
     56 H24         6.6767    5.3032  -10.4721 H         1 <0>         0.1305
     57 H25         4.4780    6.0664   -9.6765 H         1 <0>         0.1292
@<TRIPOS>BOND
     1    1    2 1
     2    1   33 1
     3    1   34 1
     4    1   35 1
     5    2    6 1
     6    2    3 1
     7    3   13 1
     8    3    4 2
     9    4    5 1
    10    4   10 1
    11    5    6 2
    12    5    7 1
    13    7    8 2
    14    7    9 am
    15    9   36 1
    16    9   37 1
    17   10   11 1
    18   10   38 1
    19   10   39 1
    20   11   12 1
    21   11   40 1
    22   11   41 1
    23   12   17 ar
    24   12   13 ar
    25   13   14 ar
    26   14   15 ar
    27   15   16 ar
    28   15   18 1
    29   16   17 ar
    30   17   42 1
    31   18   19 1
    32   18   43 1
    33   19   24 1
    34   19   20 1
    35   19   44 1
    36   20   21 1
    37   20   45 1
    38   20   46 1
    39   21   22 1
    40   21   47 1
    41   21   48 1
    42   22   23 1
    43   22   25 am
    44   23   24 1
    45   23   49 1
    46   23   50 1
    47   24   51 1
    48   24   52 1
    49   25   26 2
    50   25   27 1
    51   27   32 ar
    52   27   28 ar
    53   28   29 ar
    54   28   53 1
    55   29   30 ar
    56   29   54 1
    57   30   31 ar
    58   30   55 1
    59   31   32 ar
    60   31   56 1
    61   32   57 1
@<TRIPOS>MOLECULE
CHEMBL259551
   38    42     0     0     0
SMALL
USER_CHARGES

@<TRIPOS>ATOM
      1 C1         -0.0902    1.2402   -0.1765 C.ar      1 <0>        -0.1048
      2 C2          0.4224    0.7916    1.0274 C.ar      1 <0>        -0.1183
      3 C3          1.6463    0.1550    1.0650 C.ar      1 <0>        -0.0805
      4 C4          2.3660   -0.0359   -0.1132 C.ar      1 <0>        -0.0162
      5 C5          1.8444    0.4178   -1.3235 C.ar      1 <0>        -0.0839
      6 C6          0.6197    1.0535   -1.3490 C.ar      1 <0>        -0.1198
      7 C7          3.6819   -0.7188   -0.0793 C.2       1 <0>         0.1864
      8 C8          3.9962   -1.8600    0.6828 C.2       1 <0>        -0.1993
      9 C9          5.3358   -2.1727    0.4215 C.2       1 <0>         0.1317
     10 C10         6.1858   -3.1894    0.8872 C.2       1 <0>        -0.1233
     11 C11         7.4726   -3.2375    0.4421 C.2       1 <0>        -0.0680
     12 C12         7.9250   -2.2726   -0.4716 C.2       1 <0>        -0.1627
     13 C13         7.0938   -1.3023   -0.9081 C.2       1 <0>         0.1193
     14 N1          5.8020   -1.2425   -0.4707 N.pl3     1 <0>        -0.2666
     15 N2          4.7531   -0.3619   -0.7629 N.2       1 <0>        -0.3037
     16 C14         3.0835   -2.5907    1.5888 C.ar      1 <0>         0.1041
     17 C15         3.5041   -2.9380    2.8729 C.ar      1 <0>        -0.0230
     18 C16         2.5977   -3.6264    3.6812 C.ar      1 <0>        -0.1857
     19 C17         2.6234   -4.1621    5.0402 C.2       1 <0>         0.3698
     20 N3          1.4623   -4.7186    5.2659 N.2       1 <0>        -0.2878
     21 N4          0.6426   -4.5949    4.1396 N.pl3     1 <0>        -0.4823
     22 H1         -0.2651   -4.9293    4.0671 H         1 <0>         0.4510
     23 C18         1.3208   -3.9275    3.1558 C.ar      1 <0>         0.2677
     24 N5          1.0216   -3.5509    1.9199 N.ar      1 <0>        -0.2413
     25 N6          1.8567   -2.9133    1.1816 N.ar      1 <0>        -0.1573
     26 N7          3.6942   -4.0930    5.9352 N.pl3     1 <0>        -0.8260
     27 H2         -1.0503    1.7341   -0.2018 H         1 <0>         0.1250
     28 H3         -0.1361    0.9401    1.9398 H         1 <0>         0.1241
     29 H4          2.0459   -0.1942    2.0056 H         1 <0>         0.1141
     30 H5          2.3979    0.2729   -2.2395 H         1 <0>         0.1262
     31 H6          0.2147    1.4058   -2.2861 H         1 <0>         0.1274
     32 H7          5.8235   -3.9245    1.5905 H         1 <0>         0.1458
     33 H8          8.1398   -4.0121    0.7901 H         1 <0>         0.1458
     34 H9          8.9442   -2.3065   -0.8273 H         1 <0>         0.1598
     35 H10         7.4546   -0.5659   -1.6108 H         1 <0>         0.1735
     36 H11         4.4922   -2.6845    3.2275 H         1 <0>         0.1500
     37 H12         4.5194   -3.6566    5.6714 H         1 <0>         0.4150
     38 H13         3.6124   -4.4814    6.8203 H         1 <0>         0.4138
@<TRIPOS>BOND
     1    1    6 ar
     2    1    2 ar
     3    1   27 1
     4    2    3 ar
     5    2   28 1
     6    3    4 ar
     7    3   29 1
     8    4    5 ar
     9    4    7 1
    10    5    6 ar
    11    5   30 1
    12    6   31 1
    13    7   15 2
    14    7    8 1
    15    8    9 2
    16    8   16 1
    17    9   14 1
    18    9   10 1
    19   10   11 2
    20   10   32 1
    21   11   12 1
    22   11   33 1
    23   12   13 2
    24   12   34 1
    25   13   14 1
    26   13   35 1
    27   14   15 1
    28   16   25 ar
    29   16   17 ar
    30   17   18 ar
    31   17   36 1
    32   18   23 ar
    33   18   19 1
    34   19   20 2
    35   19   26 1
    36   20   21 1
    37   21   22 1
    38   21   23 1
    39   23   24 ar
    40   24   25 ar
    41   26   37 1
    42   26   38 1
@<TRIPOS>MOLECULE
CHEMBL259551__1
   38    42     0     0     0
SMALL
USER_CHARGES

@<TRIPOS>ATOM
      1 C1         -0.0886    1.2433   -0.1724 C.ar      1 <0>        -0.1057
      2 C2          0.4240    0.7938    1.0312 C.ar      1 <0>        -0.1182
      3 C3          1.6475    0.1564    1.0681 C.ar      1 <0>        -0.0793
      4 C4          2.3669   -0.0342   -0.1105 C.ar      1 <0>        -0.0139
      5 C5          1.8453    0.4209   -1.3204 C.ar      1 <0>        -0.0850
      6 C6          0.6209    1.0570   -1.3452 C.ar      1 <0>        -0.1204
      7 C7          3.6823   -0.7179   -0.0773 C.2       1 <0>         0.1806
      8 C8          3.9958   -1.8597    0.6838 C.2       1 <0>        -0.1843
      9 C9          5.3350   -2.1733    0.4226 C.2       1 <0>         0.1231
     10 C10         6.1843   -3.1908    0.8875 C.2       1 <0>        -0.1199
     11 C11         7.4710   -3.2394    0.4426 C.2       1 <0>        -0.0733
     12 C12         7.9246   -2.2742   -0.4705 C.2       1 <0>        -0.1646
     13 C13         7.0946   -1.3029   -0.9066 C.2       1 <0>         0.1188
     14 N1          5.8022   -1.2423   -0.4693 N.pl3     1 <0>        -0.2687
     15 N2          4.7539   -0.3611   -0.7612 N.2       1 <0>        -0.3047
     16 C14         3.0825   -2.5901    1.5898 C.ar      1 <0>         0.0549
     17 C15         3.5124   -2.9304    2.8660 C.ar      1 <0>         0.0094
     18 C16         2.6090   -3.6233    3.6886 C.ar      1 <0>        -0.2747
     19 C17         2.6288   -4.1358    4.9826 C.2       1 <0>         0.4220
     20 N3          1.4342   -4.7069    5.2102 N.pl3     1 <0>        -0.4345
     21 N4          0.6193   -4.5794    4.0800 N.2       1 <0>        -0.2867
     22 H1          1.1748   -5.1434    6.0366 H         1 <0>         0.4475
     23 C18         1.2778   -3.9354    3.1358 C.ar      1 <0>         0.2289
     24 N5          0.9977   -3.5440    1.8832 N.ar      1 <0>        -0.2004
     25 N6          1.8555   -2.9077    1.1707 N.ar      1 <0>        -0.1332
     26 N7          3.6873   -4.0698    5.8729 N.pl3     1 <0>        -0.8273
     27 H2         -1.0486    1.7376   -0.1972 H         1 <0>         0.1243
     28 H3         -0.1340    0.9423    1.9438 H         1 <0>         0.1236
     29 H4          2.0470   -0.1938    2.0084 H         1 <0>         0.1148
     30 H5          2.3985    0.2763   -2.2366 H         1 <0>         0.1254
     31 H6          0.2156    1.4097   -2.2821 H         1 <0>         0.1266
     32 H7          5.8214   -3.9262    1.5903 H         1 <0>         0.1441
     33 H8          8.1376   -4.0149    0.7901 H         1 <0>         0.1436
     34 H9          8.9438   -2.3088   -0.8260 H         1 <0>         0.1580
     35 H10         7.4563   -0.5664   -1.6088 H         1 <0>         0.1720
     36 H11         4.5024   -2.6726    3.2121 H         1 <0>         0.1405
     37 H12         4.5138   -3.6339    5.6123 H         1 <0>         0.4247
     38 H13         3.6024   -4.4595    6.7571 H         1 <0>         0.4122
@<TRIPOS>BOND
     1    1    6 ar
     2    1    2 ar
     3    1   27 1
     4    2    3 ar
     5    2   28 1
     6    3    4 ar
     7    3   29 1
     8    4    5 ar
     9    4    7 1
    10    5    6 ar
    11    5   30 1
    12    6   31 1
    13    7   15 2
    14    7    8 1
    15    8    9 2
    16    8   16 1
    17    9   14 1
    18    9   10 1
    19   10   11 2
    20   10   32 1
    21   11   12 1
    22   11   33 1
    23   12   13 2
    24   12   34 1
    25   13   14 1
    26   13   35 1
    27   14   15 1
    28   16   25 ar
    29   16   17 ar
    30   17   18 ar
    31   17   36 1
    32   18   23 ar
    33   18   19 2
    34   19   26 1
    35   19   20 1
    36   20   22 1
    37   20   21 1
    38   21   23 2
    39   23   24 ar
    40   24   25 ar
    41   26   37 1
    42   26   38 1
@<TRIPOS>MOLECULE
CHEMBL397332
   41    44     0     0     0
SMALL
USER_CHARGES

@<TRIPOS>ATOM
      1 C1         -0.0187    1.5258    0.0104 C.3       1 <0>        -0.1455
      2 C2          0.0021   -0.0041    0.0020 C.3       1 <0>        -0.0438
      3 C3         -1.4314   -0.5358    0.0275 C.3       1 <0>         0.1143
      4 N1         -2.0625   -0.3761    1.3312 N.am      1 <0>        -0.7148
      5 C4         -1.3906   -0.5584    2.4908 C.2       1 <0>         0.5934
      6 O1         -1.9624   -0.5504    3.5645 O.2       1 <0>        -0.5303
      7 C5          0.0651   -0.7676    2.3952 C.2       1 <0>         0.0041
      8 C6          0.7304   -0.5055    1.2219 C.2       1 <0>        -0.0906
      9 C7          2.0791   -0.7900    1.4314 C.ar      1 <0>        -0.1144
     10 C8          3.2015   -0.7066    0.5981 C.ar      1 <0>         0.0292
     11 C9          4.4259   -1.0826    1.1531 C.ar      1 <0>        -0.1706
     12 C10         4.5291   -1.5220    2.4784 C.ar      1 <0>        -0.0628
     13 C11         3.4412   -1.6080    3.3050 C.ar      1 <0>        -0.1239
     14 C12         2.2020   -1.2383    2.7781 C.ar      1 <0>         0.1342
     15 N2          0.9588   -1.2129    3.3372 N.pl3     1 <0>        -0.5349
     16 H1          0.7421   -1.4669    4.2479 H         1 <0>         0.4305
     17 C13         5.6433   -1.0156    0.3210 C.2       1 <0>         0.5687
     18 O2          5.5715   -0.6366   -0.8320 O.2       1 <0>        -0.5005
     19 N3          6.8345   -1.3745    0.8394 N.am      1 <0>        -0.6063
     20 C14         7.9792   -1.3115    0.0570 C.2       1 <0>         0.2691
     21 N4          9.2201   -1.6202    0.3746 N.2       1 <0>        -0.5004
     22 C15        10.1674   -1.4770   -0.5568 C.2       1 <0>        -0.0042
     23 C16         9.8138   -1.0186   -1.7948 C.2       1 <0>        -0.2393
     24 S1          8.1524   -0.7988   -1.6427 S.3       1 <0>         0.2700
     25 C17        11.5696   -1.8072   -0.2542 C.2       1 <0>         0.5974
     26 O3         12.4243   -1.6728   -1.1092 O.2       1 <0>        -0.5392
     27 N5         11.9064   -2.2586    0.9703 N.am      1 <0>        -0.8382
     28 H2          1.0039    1.9031    0.0027 H         1 <0>         0.0640
     29 H3         -0.5459    1.8868   -0.8726 H         1 <0>         0.0673
     30 H4         -0.5289    1.8773    0.9072 H         1 <0>         0.0560
     31 H5          0.5084   -0.3573   -0.8963 H         1 <0>         0.1074
     32 H6         -2.0197    0.0005   -0.7171 H         1 <0>         0.0963
     33 H7         -1.4194   -1.5946   -0.2311 H         1 <0>         0.0719
     34 H8         -2.9998   -0.1295    1.3688 H         1 <0>         0.4117
     35 H9          3.1235   -0.3682   -0.4245 H         1 <0>         0.1529
     36 H10         5.4991   -1.8028    2.8613 H         1 <0>         0.1289
     37 H11         3.5377   -1.9484    4.3254 H         1 <0>         0.1426
     38 H12         6.8918   -1.6768    1.7593 H         1 <0>         0.4258
     39 H13        10.4422   -0.8451   -2.6558 H         1 <0>         0.2095
     40 H14        11.2249   -2.3658    1.6521 H         1 <0>         0.4096
     41 H15        12.8304   -2.4762    1.1697 H         1 <0>         0.4047
@<TRIPOS>BOND
     1    1    2 1
     2    1   28 1
     3    1   29 1
     4    1   30 1
     5    2    8 1
     6    2    3 1
     7    2   31 1
     8    3    4 1
     9    3   32 1
    10    3   33 1
    11    4    5 am
    12    4   34 1
    13    5    6 2
    14    5    7 1
    15    7   15 1
    16    7    8 2
    17    8    9 1
    18    9   14 ar
    19    9   10 ar
    20   10   11 ar
    21   10   35 1
    22   11   12 ar
    23   11   17 1
    24   12   13 ar
    25   12   36 1
    26   13   14 ar
    27   13   37 1
    28   14   15 1
    29   15   16 1
    30   17   18 2
    31   17   19 am
    32   19   20 1
    33   19   38 1
    34   20   24 1
    35   20   21 2
    36   21   22 1
    37   22   23 2
    38   22   25 1
    39   23   24 1
    40   23   39 1
    41   25   26 2
    42   25   27 am
    43   27   40 1
    44   27   41 1
@<TRIPOS>MOLECULE
CHEMBL397332__1
   41    44     0     0     0
SMALL
USER_CHARGES

@<TRIPOS>ATOM
      1 C1         -0.0187    1.5258    0.0104 C.3       1 <0>        -0.1455
      2 C2          0.0021   -0.0041    0.0020 C.3       1 <0>        -0.0437
      3 C3          0.7302   -0.4995   -1.2480 C.3       1 <0>         0.1144
      4 N1          2.1721   -0.3050   -1.1676 N.am      1 <0>        -0.7147
      5 C4          2.8670   -0.4869   -0.0216 C.2       1 <0>         0.5934
      6 O1          4.0827   -0.4481   -0.0025 O.2       1 <0>        -0.5303
      7 C5          2.0852   -0.7336    1.2032 C.2       1 <0>         0.0041
      8 C6          0.7304   -0.5055    1.2219 C.2       1 <0>        -0.0906
      9 C7          0.2693   -0.8196    2.4997 C.ar      1 <0>        -0.1144
     10 C8         -1.0044   -0.7764    3.0802 C.ar      1 <0>         0.0292
     11 C9         -1.1007   -1.1733    4.4149 C.ar      1 <0>        -0.1706
     12 C10         0.0205   -1.5945    5.1401 C.ar      1 <0>        -0.0629
     13 C11         1.2717   -1.6413    4.5864 C.ar      1 <0>        -0.1239
     14 C12         1.3999   -1.2499    3.2521 C.ar      1 <0>         0.1342
     15 N2          2.4891   -1.1862    2.4346 N.pl3     1 <0>        -0.5348
     16 H1          3.3971   -1.4215    2.6815 H         1 <0>         0.4305
     17 C13        -2.4186   -1.1478    5.0793 C.2       1 <0>         0.5687
     18 O2         -3.4025   -0.7845    4.4644 O.2       1 <0>        -0.5005
     19 N3         -2.5313   -1.5274    6.3676 N.am      1 <0>        -0.6063
     20 C14        -3.7705   -1.5035    6.9923 C.2       1 <0>         0.2693
     21 N4         -4.0825   -1.8269    8.2308 N.2       1 <0>        -0.5004
     22 C15        -5.3590   -1.7214    8.6115 C.2       1 <0>        -0.0042
     23 C16        -6.2851   -1.2848    7.7063 C.2       1 <0>        -0.2392
     24 S1         -5.3544   -1.0194    6.3297 S.3       1 <0>         0.2698
     25 C17        -5.7614   -2.0704    9.9837 C.2       1 <0>         0.5974
     26 O3         -6.9263   -1.9712   10.3198 O.2       1 <0>        -0.5392
     27 N5         -4.8392   -2.5000   10.8677 N.am      1 <0>        -0.8381
     28 H2          1.0039    1.9031    0.0027 H         1 <0>         0.0560
     29 H3         -0.5459    1.8868   -0.8726 H         1 <0>         0.0674
     30 H4         -0.5289    1.8773    0.9072 H         1 <0>         0.0640
     31 H5         -1.0199   -0.3830    0.0056 H         1 <0>         0.1074
     32 H6          0.5243   -1.5619   -1.3782 H         1 <0>         0.0719
     33 H7          0.3494    0.0403   -2.1151 H         1 <0>         0.0963
     34 H8          2.6518   -0.0352   -1.9663 H         1 <0>         0.4117
     35 H9         -1.8701   -0.4515    2.5222 H         1 <0>         0.1529
     36 H10        -0.1058   -1.8919    6.1706 H         1 <0>         0.1289
     37 H11         2.1267   -1.9681    5.1596 H         1 <0>         0.1426
     38 H12        -1.7464   -1.8174    6.8582 H         1 <0>         0.4258
     39 H13        -7.3470   -1.1417    7.8417 H         1 <0>         0.2095
     40 H14        -3.9103   -2.5791   10.5997 H         1 <0>         0.4096
     41 H15        -5.1044   -2.7299   11.7720 H         1 <0>         0.4047
@<TRIPOS>BOND
     1    1    2 1
     2    1   28 1
     3    1   29 1
     4    1   30 1
     5    2    8 1
     6    2    3 1
     7    2   31 1
     8    3    4 1
     9    3   32 1
    10    3   33 1
    11    4    5 am
    12    4   34 1
    13    5    6 2
    14    5    7 1
    15    7   15 1
    16    7    8 2
    17    8    9 1
    18    9   14 ar
    19    9   10 ar
    20   10   11 ar
    21   10   35 1
    22   11   12 ar
    23   11   17 1
    24   12   13 ar
    25   12   36 1
    26   13   14 ar
    27   13   37 1
    28   14   15 1
    29   15   16 1
    30   17   18 2
    31   17   19 am
    32   19   20 1
    33   19   38 1
    34   20   24 1
    35   20   21 2
    36   21   22 1
    37   22   23 2
    38   22   25 1
    39   23   24 1
    40   23   39 1
    41   25   26 2
    42   25   27 am
    43   27   40 1
    44   27   41 1
@<TRIPOS>MOLECULE
CHEMBL220110
   41    44     0     0     0
SMALL
USER_CHARGES

@<TRIPOS>ATOM
      1 C1          0.4585    0.4884    0.9561 C.ar      1 <0>        -0.1056
      2 C2          1.6076    1.2518    1.0011 C.ar      1 <0>        -0.0998
      3 C3          2.4549    1.2978   -0.1049 C.ar      1 <0>         0.0185
      4 C4          2.1363    0.5716   -1.2514 C.ar      1 <0>        -0.1041
      5 C5          0.9840   -0.1888   -1.2854 C.ar      1 <0>        -0.0325
      6 C6          0.1465   -0.2303   -0.1835 C.ar      1 <0>        -0.1160
      7 Cl1         0.5845   -1.0937   -2.7121 Cl        1 <0>        -0.0712
      8 C7          3.6902    2.1165   -0.0621 C.2       1 <0>        -0.2051
      9 C8          4.0508    3.1299   -0.9685 C.2       1 <0>         0.0724
     10 N1          5.2047    3.6215   -0.6039 N.2       1 <0>        -0.2875
     11 N2          5.6429    2.9556    0.5466 N.pl3     1 <0>        -0.4648
     12 H1          6.4701    3.1267    1.0233 H         1 <0>         0.4423
     13 C9          4.7029    2.0294    0.8832 C.2       1 <0>         0.1933
     14 C10         4.7529    1.1045    2.0356 C.2       1 <0>        -0.1447
     15 C11         5.0814    1.4409    3.3654 C.2       1 <0>        -0.0796
     16 C12         5.0056    0.2925    4.1007 C.2       1 <0>        -0.0472
     17 N3          4.6408   -0.7344    3.2595 N.pl3     1 <0>        -0.5329
     18 H2          4.5146   -1.6594    3.5227 H         1 <0>         0.4221
     19 C13         4.4814   -0.2472    2.0125 C.2       1 <0>         0.0766
     20 C14         5.2686    0.1735    5.5394 C.2       1 <0>         0.6038
     21 O1          5.5864    1.1561    6.1831 O.2       1 <0>        -0.5217
     22 N4          5.1581   -1.0240    6.1478 N.am      1 <0>        -0.6219
     23 C15         4.7903   -2.2875    5.4923 C.3       1 <0>         0.0845
     24 C16         4.7661   -3.3793    6.5826 C.3       1 <0>        -0.1303
     25 C17         4.5687   -2.5632    7.8873 C.3       1 <0>        -0.1344
     26 C18         5.3923   -1.2851    7.5798 C.3       1 <0>         0.1051
     27 H3         -0.1960    0.4488    1.8142 H         1 <0>         0.1304
     28 H4          1.8497    1.8128    1.8916 H         1 <0>         0.1270
     29 H5          2.7889    0.6038   -2.1113 H         1 <0>         0.1339
     30 H6         -0.7536   -0.8264   -0.2139 H         1 <0>         0.1311
     31 H7          3.4713    3.4477   -1.8226 H         1 <0>         0.1869
     32 H8          5.3438    2.4220    3.7330 H         1 <0>         0.1531
     33 H9          4.1925   -0.8188    1.1429 H         1 <0>         0.1800
     34 H10         3.8040   -2.1958    5.0375 H         1 <0>         0.0701
     35 H11         5.5295   -2.5394    4.7318 H         1 <0>         0.0703
     36 H12         3.9318   -4.0629    6.4254 H         1 <0>         0.0883
     37 H13         5.7113   -3.9218    6.6063 H         1 <0>         0.0827
     38 H14         3.5165   -2.3256    8.0442 H         1 <0>         0.0795
     39 H15         4.9800   -3.0937    8.7461 H         1 <0>         0.0902
     40 H16         6.4521   -1.4601    7.7651 H         1 <0>         0.0731
     41 H17         5.0341   -0.4496    8.1812 H         1 <0>         0.0841
@<TRIPOS>BOND
     1    1    6 ar
     2    1    2 ar
     3    1   27 1
     4    2    3 ar
     5    2   28 1
     6    3    4 ar
     7    3    8 1
     8    4    5 ar
     9    4   29 1
    10    5    6 ar
    11    5    7 1
    12    6   30 1
    13    8   13 2
    14    8    9 1
    15    9   10 2
    16    9   31 1
    17   10   11 1
    18   11   12 1
    19   11   13 1
    20   13   14 1
    21   14   19 2
    22   14   15 1
    23   15   16 2
    24   15   32 1
    25   16   17 1
    26   16   20 1
    27   17   18 1
    28   17   19 1
    29   19   33 1
    30   20   21 2
    31   20   22 am
    32   22   26 1
    33   22   23 1
    34   23   24 1
    35   23   34 1
    36   23   35 1
    37   24   25 1
    38   24   36 1
    39   24   37 1
    40   25   26 1
    41   25   38 1
    42   25   39 1
    43   26   40 1
    44   26   41 1
@<TRIPOS>MOLECULE
CHEMBL220110__1
   41    44     0     0     0
SMALL
USER_CHARGES

@<TRIPOS>ATOM
      1 C1         -0.0167    1.3786    0.0096 C.ar      1 <0>        -0.1040
      2 C2          1.1676    2.0878    0.0021 C.ar      1 <0>        -0.1106
      3 C3          2.3840    1.4085   -0.0131 C.ar      1 <0>         0.0151
      4 C4          2.3983    0.0151   -0.0207 C.ar      1 <0>        -0.0965
      5 C5          1.2076   -0.6849   -0.0131 C.ar      1 <0>        -0.0328
      6 C6          0.0021   -0.0041    0.0020 C.ar      1 <0>        -0.1165
      7 Cl1         1.2227   -2.4208   -0.0230 Cl        1 <0>        -0.0711
      8 C7          3.6597    2.1660   -0.0217 C.2       1 <0>        -0.2036
      9 C8          3.9817    3.1931   -0.8578 C.2       1 <0>         0.0824
     10 N1          5.2257    3.6075   -0.5427 N.pl3     1 <0>        -0.4699
     11 N2          5.6983    2.8234    0.5164 N.2       1 <0>        -0.2803
     12 H1          5.7109    4.3266   -0.9767 H         1 <0>         0.4444
     13 C9          4.7639    1.9580    0.8421 C.2       1 <0>         0.1762
     14 C10         4.8515    0.9411    1.9196 C.2       1 <0>        -0.1174
     15 C11         6.0090    0.2429    2.3146 C.2       1 <0>        -0.0682
     16 C12         5.6459   -0.5903    3.3354 C.2       1 <0>        -0.0530
     17 N3          4.3004   -0.4148    3.5685 N.pl3     1 <0>        -0.5368
     18 H2          3.7794   -0.8811    4.2408 H         1 <0>         0.4200
     19 C13         3.8255    0.5150    2.7144 C.2       1 <0>         0.0665
     20 C14         6.5335   -1.5100    4.0557 C.2       1 <0>         0.6057
     21 O1          7.7114   -1.5775    3.7574 O.2       1 <0>        -0.5225
     22 N4          6.0445   -2.2801    5.0478 N.am      1 <0>        -0.6229
     23 C15         4.6473   -2.3037    5.5047 C.3       1 <0>         0.0853
     24 C16         4.5635   -3.3112    6.6707 C.3       1 <0>        -0.1302
     25 C17         6.0285   -3.3793    7.1770 C.3       1 <0>        -0.1344
     26 C18         6.8206   -3.2430    5.8502 C.3       1 <0>         0.1055
     27 H3         -0.9598    1.9047    0.0260 H         1 <0>         0.1327
     28 H4          1.1513    3.1677    0.0077 H         1 <0>         0.1288
     29 H5          3.3383   -0.5164   -0.0328 H         1 <0>         0.1337
     30 H6         -0.9269   -0.5549    0.0079 H         1 <0>         0.1317
     31 H7          3.3526    3.6020   -1.6347 H         1 <0>         0.1815
     32 H8          6.9969    0.3459    1.8906 H         1 <0>         0.1531
     33 H9          2.8041    0.8626    2.6654 H         1 <0>         0.1747
     34 H10         4.3532   -1.3124    5.8495 H         1 <0>         0.0692
     35 H11         3.9965   -2.6236    4.6909 H         1 <0>         0.0707
     36 H12         3.9017   -2.9408    7.4536 H         1 <0>         0.0872
     37 H13         4.2329   -4.2868    6.3144 H         1 <0>         0.0823
     38 H14         6.2471   -2.5527    7.8531 H         1 <0>         0.0788
     39 H15         6.2325   -4.3374    7.6551 H         1 <0>         0.0892
     40 H16         6.8773   -4.2041    5.3391 H         1 <0>         0.0723
     41 H17         7.8209   -2.8560    6.0441 H         1 <0>         0.0833
@<TRIPOS>BOND
     1    1    6 ar
     2    1    2 ar
     3    1   27 1
     4    2    3 ar
     5    2   28 1
     6    3    4 ar
     7    3    8 1
     8    4    5 ar
     9    4   29 1
    10    5    6 ar
    11    5    7 1
    12    6   30 1
    13    8   13 1
    14    8    9 2
    15    9   31 1
    16    9   10 1
    17   10   11 1
    18   10   12 1
    19   11   13 2
    20   13   14 1
    21   14   19 2
    22   14   15 1
    23   15   16 2
    24   15   32 1
    25   16   17 1
    26   16   20 1
    27   17   18 1
    28   17   19 1
    29   19   33 1
    30   20   21 2
    31   20   22 am
    32   22   26 1
    33   22   23 1
    34   23   24 1
    35   23   34 1
    36   23   35 1
    37   24   25 1
    38   24   36 1
    39   24   37 1
    40   25   26 1
    41   25   38 1
    42   25   39 1
    43   26   40 1
    44   26   41 1
@<TRIPOS>MOLECULE
CHEMBL374876
   42    45     0     0     0
SMALL
USER_CHARGES

@<TRIPOS>ATOM
      1 C1          0.4571    1.8524    1.3087 C.ar      1 <0>        -0.1052
      2 C2          1.7984    2.1632    1.2111 C.ar      1 <0>        -0.1009
      3 C3          2.4867    1.9062    0.0265 C.ar      1 <0>         0.0175
      4 C4          1.8154    1.3360   -1.0541 C.ar      1 <0>        -0.1044
      5 C5          0.4734    1.0291   -0.9454 C.ar      1 <0>        -0.0321
      6 C6         -0.2047    1.2869    0.2341 C.ar      1 <0>        -0.1159
      7 Cl1        -0.3650    0.3196   -2.2897 Cl        1 <0>        -0.0707
      8 C7          3.9273    2.2385   -0.0839 C.2       1 <0>        -0.2028
      9 C8          4.5308    3.0066   -1.0961 C.2       1 <0>         0.0725
     10 N1          5.8120    3.0805   -0.8530 N.2       1 <0>        -0.2867
     11 N2          6.0972    2.3697    0.3185 N.pl3     1 <0>        -0.4650
     12 H1          6.9730    2.2655    0.7224 H         1 <0>         0.4420
     13 C9          4.9302    1.8546    0.7955 C.2       1 <0>         0.1914
     14 C10         4.7635    1.0386    2.0172 C.2       1 <0>        -0.1414
     15 C11         5.3257    1.3029    3.2836 C.2       1 <0>        -0.0812
     16 C12         4.9193    0.3028    4.1200 C.2       1 <0>        -0.0476
     17 N3          4.1262   -0.5637    3.4022 N.pl3     1 <0>        -0.5339
     18 H2          3.7045   -1.3633    3.7541 H         1 <0>         0.4262
     19 C13         4.0247   -0.1198    2.1332 C.2       1 <0>         0.0752
     20 C14         5.2686    0.1735    5.5394 C.2       1 <0>         0.5920
     21 O1          5.5687    1.1608    6.1845 O.2       1 <0>        -0.5183
     22 N4          5.2570   -1.0386    6.1286 N.am      1 <0>        -0.6158
     23 C15         4.8827   -2.2446    5.3730 C.3       1 <0>         0.0487
     24 C16         5.9663   -3.3070    5.5903 C.3       1 <0>         0.0487
     25 O2          6.1828   -3.4784    6.9930 O.3       1 <0>        -0.3750
     26 C17         6.6665   -2.3088    7.6577 C.3       1 <0>         0.0462
     27 C18         5.6243   -1.1960    7.5448 C.3       1 <0>         0.0775
     28 H3         -0.0757    2.0471    2.2278 H         1 <0>         0.1306
     29 H4          2.3137    2.6051    2.0511 H         1 <0>         0.1272
     30 H5          2.3437    1.1351   -1.9744 H         1 <0>         0.1341
     31 H6         -1.2541    1.0452    0.3153 H         1 <0>         0.1312
     32 H7          4.0206    3.4589   -1.9337 H         1 <0>         0.1873
     33 H8          5.9587    2.1387    3.5429 H         1 <0>         0.1524
     34 H9          3.4623   -0.5924    1.3415 H         1 <0>         0.1814
     35 H10         3.9240   -2.6194    5.7312 H         1 <0>         0.0864
     36 H11         4.8107   -2.0054    4.3120 H         1 <0>         0.0984
     37 H12         5.6425   -4.2518    5.1538 H         1 <0>         0.1109
     38 H13         6.8929   -2.9844    5.1156 H         1 <0>         0.0601
     39 H14         6.8465   -2.5354    8.7086 H         1 <0>         0.1126
     40 H15         7.5957   -1.9825    7.1905 H         1 <0>         0.0587
     41 H16         6.0431   -0.2627    7.9213 H         1 <0>         0.1070
     42 H17         4.7415   -1.4634    8.1254 H         1 <0>         0.0809
@<TRIPOS>BOND
     1    1    6 ar
     2    1    2 ar
     3    1   28 1
     4    2    3 ar
     5    2   29 1
     6    3    4 ar
     7    3    8 1
     8    4    5 ar
     9    4   30 1
    10    5    6 ar
    11    5    7 1
    12    6   31 1
    13    8   13 2
    14    8    9 1
    15    9   10 2
    16    9   32 1
    17   10   11 1
    18   11   12 1
    19   11   13 1
    20   13   14 1
    21   14   19 2
    22   14   15 1
    23   15   16 2
    24   15   33 1
    25   16   17 1
    26   16   20 1
    27   17   18 1
    28   17   19 1
    29   19   34 1
    30   20   21 2
    31   20   22 am
    32   22   27 1
    33   22   23 1
    34   23   24 1
    35   23   35 1
    36   23   36 1
    37   24   25 1
    38   24   37 1
    39   24   38 1
    40   25   26 1
    41   26   27 1
    42   26   39 1
    43   26   40 1
    44   27   41 1
    45   27   42 1
@<TRIPOS>MOLECULE
CHEMBL374876__1
   42    45     0     0     0
SMALL
USER_CHARGES

@<TRIPOS>ATOM
      1 C1         -0.2826    2.1293    1.2422 C.ar      1 <0>        -0.1036
      2 C2          0.9466    2.4564    0.7058 C.ar      1 <0>        -0.1104
      3 C3          1.9277    1.4766    0.5689 C.ar      1 <0>         0.0149
      4 C4          1.6623    0.1702    0.9750 C.ar      1 <0>        -0.0971
      5 C5          0.4292   -0.1464    1.5104 C.ar      1 <0>        -0.0328
      6 C6         -0.5417    0.8317    1.6438 C.ar      1 <0>        -0.1161
      7 Cl1         0.0959   -1.7732    2.0165 Cl        1 <0>        -0.0711
      8 C7          3.2502    1.8228   -0.0075 C.2       1 <0>        -0.2035
      9 C8          3.4708    2.5049   -1.1667 C.2       1 <0>         0.0828
     10 N1          4.8044    2.6119   -1.3356 N.pl3     1 <0>        -0.4695
     11 N2          5.4387    1.9826   -0.2578 N.2       1 <0>        -0.2796
     12 H1          5.2489    3.0500   -2.0781 H         1 <0>         0.4447
     13 C9          4.5153    1.5101    0.5497 C.2       1 <0>         0.1749
     14 C10         4.7549    0.7761    1.8172 C.2       1 <0>        -0.1148
     15 C11         5.8152   -0.1136    2.0775 C.2       1 <0>        -0.0685
     16 C12         5.6570   -0.5620    3.3589 C.2       1 <0>        -0.0550
     17 N3          4.5300    0.0323    3.8806 N.pl3     1 <0>        -0.5370
     18 H2          4.1823   -0.1068    4.7754 H         1 <0>         0.4231
     19 C13         3.9909    0.8438    2.9476 C.2       1 <0>         0.0664
     20 C14         6.5335   -1.5100    4.0557 C.2       1 <0>         0.5947
     21 O1          7.6799   -1.6683    3.6793 O.2       1 <0>        -0.5196
     22 N4          6.0691   -2.2056    5.1126 N.am      1 <0>        -0.6188
     23 C15         4.6487   -2.1478    5.4924 C.3       1 <0>         0.0529
     24 C16         4.1313   -3.5823    5.6487 C.3       1 <0>         0.0493
     25 O2          4.9959   -4.3009    6.5318 O.3       1 <0>        -0.3761
     26 C17         6.3371   -4.4364    6.0559 C.3       1 <0>         0.0463
     27 C18         6.9664   -3.0500    5.9171 C.3       1 <0>         0.0778
     28 H3         -1.0419    2.8894    1.3526 H         1 <0>         0.1329
     29 H4          1.1473    3.4702    0.3922 H         1 <0>         0.1289
     30 H5          2.4192   -0.5931    0.8708 H         1 <0>         0.1334
     31 H6         -1.5048    0.5803    2.0629 H         1 <0>         0.1319
     32 H7          2.7124    2.8908   -1.8319 H         1 <0>         0.1817
     33 H8          6.6041   -0.3897    1.3936 H         1 <0>         0.1526
     34 H9          3.1023    1.4448    3.0725 H         1 <0>         0.1760
     35 H10         4.5426   -1.6143    6.4370 H         1 <0>         0.0831
     36 H11         4.0814   -1.6356    4.7152 H         1 <0>         0.0987
     37 H12         3.1230   -3.5627    6.0624 H         1 <0>         0.1102
     38 H13         4.1166   -4.0722    4.6751 H         1 <0>         0.0603
     39 H14         6.9159   -5.0311    6.7626 H         1 <0>         0.1111
     40 H15         6.3305   -4.9294    5.0838 H         1 <0>         0.0588
     41 H16         7.9332   -3.1350    5.4210 H         1 <0>         0.1065
     42 H17         7.0977   -2.6089    6.9051 H         1 <0>         0.0794
@<TRIPOS>BOND
     1    1    6 ar
     2    1    2 ar
     3    1   28 1
     4    2    3 ar
     5    2   29 1
     6    3    4 ar
     7    3    8 1
     8    4    5 ar
     9    4   30 1
    10    5    6 ar
    11    5    7 1
    12    6   31 1
    13    8   13 1
    14    8    9 2
    15    9   32 1
    16    9   10 1
    17   10   11 1
    18   10   12 1
    19   11   13 2
    20   13   14 1
    21   14   19 2
    22   14   15 1
    23   15   16 2
    24   15   33 1
    25   16   17 1
    26   16   20 1
    27   17   18 1
    28   17   19 1
    29   19   34 1
    30   20   21 2
    31   20   22 am
    32   22   27 1
    33   22   23 1
    34   23   24 1
    35   23   35 1
    36   23   36 1
    37   24   25 1
    38   24   37 1
    39   24   38 1
    40   25   26 1
    41   26   27 1
    42   26   39 1
    43   26   40 1
    44   27   41 1
    45   27   42 1
@<TRIPOS>MOLECULE
CHEMBL379218
   50    53     0     0     0
SMALL
USER_CHARGES

@<TRIPOS>ATOM
      1 C1         -0.0184    1.5028    0.0103 C.3       1 <0>        -0.0807
      2 C2          0.0021   -0.0041    0.0020 C.2       1 <0>         0.1088
      3 C3          0.0083   -0.8581   -1.1820 C.ar      1 <0>        -0.1763
      4 C4         -0.0019   -0.6082   -2.5573 C.ar      1 <0>        -0.0083
      5 C5          0.0079   -1.6738   -3.4431 C.ar      1 <0>        -0.1061
      6 C6          0.0279   -2.9891   -2.9631 C.ar      1 <0>        -0.0534
      7 C7          0.0380   -3.2410   -1.6234 C.ar      1 <0>        -0.1371
      8 C8          0.0285   -2.1860   -0.7124 C.ar      1 <0>         0.1440
      9 N1          0.0337   -2.1193    0.6566 N.pl3     1 <0>        -0.5045
     10 H1          0.0468   -2.8812    1.2569 H         1 <0>         0.4444
     11 N2          0.0230   -0.7772    1.0497 N.2       1 <0>        -0.2435
     12 C9         -0.0034   -1.4202   -4.9053 C.ar      1 <0>        -0.0271
     13 C10         0.0004   -2.4846   -5.8096 C.ar      1 <0>        -0.1014
     14 C11        -0.0110   -2.1940   -7.1677 C.ar      1 <0>         0.0698
     15 C12        -0.0257   -0.8671   -7.5756 C.ar      1 <0>         0.0161
     16 N3         -0.0289    0.1132   -6.6940 N.ar      1 <0>        -0.4368
     17 C13        -0.0238   -0.1167   -5.3969 C.ar      1 <0>         0.0812
     18 O1         -0.0074   -3.1961   -8.0859 O.3       1 <0>        -0.3231
     19 C14        -0.0198   -2.8144   -9.4629 C.3       1 <0>         0.0274
     20 C15        -0.0136   -4.0682  -10.3397 C.3       1 <0>         0.0437
     21 H2          0.8359   -4.6958  -10.0703 H         1 <0>         0.1553
     22 C16         0.0989   -3.6615  -11.8104 C.3       1 <0>        -0.0972
     23 C17         0.2286   -4.8962  -12.6646 C.ar      1 <0>        -0.1303
     24 C18         1.4792   -5.4136  -12.9461 C.ar      1 <0>        -0.1030
     25 C19         1.5982   -6.5462  -13.7296 C.ar      1 <0>        -0.1053
     26 C20         0.4666   -7.1617  -14.2312 C.ar      1 <0>        -0.1014
     27 C21        -0.7840   -6.6448  -13.9490 C.ar      1 <0>        -0.1075
     28 C22        -0.9032   -5.5147  -13.1619 C.ar      1 <0>        -0.1401
     29 N4         -1.2605   -4.8167  -10.1327 N.4       1 <0>        -0.6365
     30 H3          1.0042    1.8801    0.0026 H         1 <0>         0.0878
     31 H4         -0.5455    1.8639   -0.8728 H         1 <0>         0.0842
     32 H5         -0.5286    1.8543    0.9071 H         1 <0>         0.0843
     33 H6         -0.0177    0.4067   -2.9264 H         1 <0>         0.1366
     34 H7          0.0350   -3.8127   -3.6617 H         1 <0>         0.1316
     35 H8          0.0531   -4.2604   -1.2670 H         1 <0>         0.1332
     36 H9          0.0123   -3.5071   -5.4619 H         1 <0>         0.1476
     37 H10        -0.0343   -0.6345   -8.6302 H         1 <0>         0.1565
     38 H11        -0.0314    0.7142   -4.7071 H         1 <0>         0.1670
     39 H12        -0.9167   -2.2306   -9.6700 H         1 <0>         0.0927
     40 H13         0.8631   -2.2138   -9.6814 H         1 <0>         0.1143
     41 H14        -0.7936   -3.1088  -12.1038 H         1 <0>         0.1038
     42 H15         0.9777   -3.0313  -11.9469 H         1 <0>         0.1255
     43 H16         2.3632   -4.9328  -12.5542 H         1 <0>         0.1308
     44 H17         2.5752   -6.9501  -13.9502 H         1 <0>         0.1335
     45 H18         0.5596   -8.0462  -14.8440 H         1 <0>         0.1330
     46 H19        -1.6681   -7.1255  -14.3411 H         1 <0>         0.1326
     47 H20        -1.8805   -5.1130  -12.9382 H         1 <0>         0.1228
     48 H21        -1.2564   -5.6436  -10.7110 H         1 <0>         0.4365
     49 H22        -1.3347   -5.0850   -9.1628 H         1 <0>         0.4422
     50 H23        -2.0469   -4.2358  -10.3821 H         1 <0>         0.4324
@<TRIPOS>BOND
     1    1    2 1
     2    1   30 1
     3    1   31 1
     4    1   32 1
     5    2   11 2
     6    2    3 1
     7    3    8 ar
     8    3    4 ar
     9    4    5 ar
    10    4   33 1
    11    5    6 ar
    12    5   12 1
    13    6    7 ar
    14    6   34 1
    15    7    8 ar
    16    7   35 1
    17    8    9 1
    18    9   10 1
    19    9   11 1
    20   12   17 ar
    21   12   13 ar
    22   13   14 ar
    23   13   36 1
    24   14   15 ar
    25   14   18 1
    26   15   16 ar
    27   15   37 1
    28   16   17 ar
    29   17   38 1
    30   18   19 1
    31   19   20 1
    32   19   39 1
    33   19   40 1
    34   20   21 1
    35   20   22 1
    36   20   29 1
    37   22   23 1
    38   22   41 1
    39   22   42 1
    40   23   28 ar
    41   23   24 ar
    42   24   25 ar
    43   24   43 1
    44   25   26 ar
    45   25   44 1
    46   26   27 ar
    47   26   45 1
    48   27   28 ar
    49   27   46 1
    50   28   47 1
    51   29   48 1
    52   29   49 1
    53   29   50 1
@<TRIPOS>MOLECULE
CHEMBL221117
   47    50     0     0     0
SMALL
USER_CHARGES

@<TRIPOS>ATOM
      1 C1         -1.1780    1.0474    0.0229 C.3       1 <0>        -0.1592
      2 C2         -1.2772   -0.4751    0.1365 C.3       1 <0>         0.1856
      3 H1         -2.3074   -0.7569    0.3542 H         1 <0>         0.1011
      4 C3         -0.8481   -1.1049   -1.1636 C.ar      1 <0>        -0.0941
      5 C4          0.4962   -1.2536   -1.4491 C.ar      1 <0>        -0.1181
      6 C5          0.8898   -1.8313   -2.6417 C.ar      1 <0>        -0.1152
      7 C6         -0.0610   -2.2606   -3.5486 C.ar      1 <0>        -0.1173
      8 C7         -1.4054   -2.1127   -3.2628 C.ar      1 <0>        -0.1129
      9 C8         -1.7989   -1.5389   -2.0683 C.ar      1 <0>        -0.1061
     10 N1         -0.4046   -0.9421    1.2167 N.am      1 <0>        -0.7268
     11 C9         -0.8505   -0.9475    2.4885 C.2       1 <0>         0.5907
     12 O1         -1.9779   -0.5645    2.7396 O.2       1 <0>        -0.5173
     13 C10         0.0235   -1.4152    3.5705 C.2       1 <0>        -0.0524
     14 C11        -0.3049   -1.4769    4.8947 C.2       1 <0>        -0.0570
     15 C12         0.8209   -1.9819    5.5781 C.2       1 <0>        -0.1404
     16 C13         1.8010   -2.2106    4.6356 C.2       1 <0>         0.0566
     17 N2          1.3136   -1.8729    3.4247 N.pl3     1 <0>        -0.5291
     18 H2          1.7956   -1.9395    2.5855 H         1 <0>         0.4203
     19 C14         0.9297   -2.2213    7.0331 C.2       1 <0>         0.1876
     20 C15         0.5379   -1.3544    8.0439 C.2       1 <0>        -0.1957
     21 C16         0.8230   -1.9847    9.2686 C.2       1 <0>         0.0722
     22 N3          1.3513   -3.1533    9.0209 N.2       1 <0>        -0.2880
     23 N4          1.4279   -3.3365    7.6355 N.pl3     1 <0>        -0.4689
     24 H3          1.7771   -4.1203    7.1831 H         1 <0>         0.4402
     25 C17        -0.0680   -0.0131    7.8657 C.ar      1 <0>         0.0167
     26 C18         0.5838    0.9531    7.1003 C.ar      1 <0>        -0.0974
     27 C19         0.0155    2.1998    6.9371 C.ar      1 <0>        -0.1044
     28 C20        -1.1990    2.4927    7.5312 C.ar      1 <0>        -0.1136
     29 C21        -1.8510    1.5381    8.2927 C.ar      1 <0>        -0.0305
     30 C22        -1.2939    0.2848    8.4579 C.ar      1 <0>        -0.1023
     31 Cl1        -3.3742    1.9143    9.0356 Cl        1 <0>        -0.0716
     32 H4         -0.1478    1.3292   -0.1947 H         1 <0>         0.0588
     33 H5         -1.8272    1.3949   -0.7808 H         1 <0>         0.0710
     34 H6         -1.4883    1.5029    0.9633 H         1 <0>         0.0683
     35 H7          1.2391   -0.9182   -0.7405 H         1 <0>         0.1168
     36 H8          1.9401   -1.9468   -2.8650 H         1 <0>         0.1243
     37 H9          0.2465   -2.7113   -4.4807 H         1 <0>         0.1245
     38 H10        -2.1482   -2.4478   -3.9715 H         1 <0>         0.1264
     39 H11        -2.8493   -1.4267   -1.8433 H         1 <0>         0.1266
     40 H12         0.4941   -1.2474    1.0165 H         1 <0>         0.3926
     41 H13        -1.2488   -1.1922    5.3356 H         1 <0>         0.1540
     42 H14         2.7895   -2.5982    4.8332 H         1 <0>         0.1790
     43 H15         0.6364   -1.5718   10.2490 H         1 <0>         0.1873
     44 H16         1.5322    0.7261    6.6361 H         1 <0>         0.1240
     45 H17         0.5201    2.9487    6.3447 H         1 <0>         0.1296
     46 H18        -1.6400    3.4699    7.4007 H         1 <0>         0.1310
     47 H19        -1.8053   -0.4612    9.0481 H         1 <0>         0.1331
@<TRIPOS>BOND
     1    1    2 1
     2    1   32 1
     3    1   33 1
     4    1   34 1
     5    2    3 1
     6    2    4 1
     7    2   10 1
     8    4    9 ar
     9    4    5 ar
    10    5    6 ar
    11    5   35 1
    12    6    7 ar
    13    6   36 1
    14    7    8 ar
    15    7   37 1
    16    8    9 ar
    17    8   38 1
    18    9   39 1
    19   10   11 am
    20   10   40 1
    21   11   12 2
    22   11   13 1
    23   13   17 1
    24   13   14 2
    25   14   15 1
    26   14   41 1
    27   15   16 2
    28   15   19 1
    29   16   17 1
    30   16   42 1
    31   17   18 1
    32   19   23 1
    33   19   20 2
    34   20   21 1
    35   20   25 1
    36   21   22 2
    37   21   43 1
    38   22   23 1
    39   23   24 1
    40   25   30 ar
    41   25   26 ar
    42   26   27 ar
    43   26   44 1
    44   27   28 ar
    45   27   45 1
    46   28   29 ar
    47   28   46 1
    48   29   30 ar
    49   29   31 1
    50   30   47 1
@<TRIPOS>MOLECULE
CHEMBL221117__1
   47    50     0     0     0
SMALL
USER_CHARGES

@<TRIPOS>ATOM
      1 C1         -0.0187    1.5258    0.0104 C.3       1 <0>        -0.1594
      2 C2          0.0021   -0.0041    0.0020 C.3       1 <0>         0.1855
      3 H1          0.5123   -0.3556   -0.8948 H         1 <0>         0.1008
      4 C3          0.7309   -0.5033    1.2229 C.ar      1 <0>        -0.0935
      5 C4          0.0808   -0.5585    2.4416 C.ar      1 <0>        -0.1176
      6 C5          0.7494   -1.0164    3.5615 C.ar      1 <0>        -0.1150
      7 C6          2.0680   -1.4196    3.4626 C.ar      1 <0>        -0.1177
      8 C7          2.7178   -1.3652    2.2438 C.ar      1 <0>        -0.1134
      9 C8          2.0479   -0.9113    1.1230 C.ar      1 <0>        -0.1063
     10 N1         -1.3723   -0.5112    0.0124 N.am      1 <0>        -0.7273
     11 C9         -2.0508   -0.6427   -1.1446 C.2       1 <0>         0.5927
     12 O1         -1.5218   -0.3403   -2.1980 O.2       1 <0>        -0.5218
     13 C10        -3.4273   -1.1506   -1.1342 C.2       1 <0>        -0.0575
     14 C11        -4.2233   -1.3376   -2.2294 C.2       1 <0>        -0.0672
     15 C12        -5.4553   -1.8368   -1.7644 C.2       1 <0>        -0.1169
     16 C13        -5.3691   -1.9371   -0.4048 C.2       1 <0>         0.0706
     17 N2         -4.1425   -1.5282   -0.0201 N.pl3     1 <0>        -0.5335
     18 H2         -3.8177   -1.5024    0.8935 H         1 <0>         0.4190
     19 C14        -6.6315   -2.1889   -2.5983 C.2       1 <0>         0.1758
     20 C15        -7.5424   -3.2465   -2.3526 C.2       1 <0>        -0.2032
     21 C16        -8.4719   -3.2261   -3.3493 C.2       1 <0>         0.0822
     22 N3         -8.1641   -2.2095   -4.1802 N.pl3     1 <0>        -0.4696
     23 N4         -7.0170   -1.5718   -3.6931 N.2       1 <0>        -0.2801
     24 H3         -8.6558   -1.9606   -4.9784 H         1 <0>         0.4446
     25 C17        -7.4930   -4.2015   -1.2183 C.ar      1 <0>         0.0154
     26 C18        -6.3059   -4.8655   -0.9144 C.ar      1 <0>        -0.1003
     27 C19        -6.2647   -5.7525    0.1420 C.ar      1 <0>        -0.1046
     28 C20        -7.3990   -5.9840    0.8990 C.ar      1 <0>        -0.1157
     29 C21        -8.5811   -5.3280    0.6019 C.ar      1 <0>        -0.0320
     30 C22        -8.6315   -4.4333   -0.4497 C.ar      1 <0>        -0.1071
     31 Cl1       -10.0006   -5.6249    1.5561 Cl        1 <0>        -0.0707
     32 H4          1.0039    1.9031    0.0027 H         1 <0>         0.0704
     33 H5         -0.5459    1.8868   -0.8726 H         1 <0>         0.0680
     34 H6         -0.5289    1.8773    0.9072 H         1 <0>         0.0588
     35 H7         -0.9493   -0.2435    2.5188 H         1 <0>         0.1174
     36 H8          0.2417   -1.0589    4.5138 H         1 <0>         0.1243
     37 H9          2.5905   -1.7767    4.3377 H         1 <0>         0.1241
     38 H10         3.7481   -1.6798    2.1666 H         1 <0>         0.1259
     39 H11         2.5545   -0.8723    0.1700 H         1 <0>         0.1262
     40 H12        -1.7940   -0.7522    0.8520 H         1 <0>         0.3931
     41 H13        -3.9578   -1.1394   -3.2574 H         1 <0>         0.1532
     42 H14        -6.1509   -2.2890    0.2520 H         1 <0>         0.1757
     43 H15        -9.3062   -3.9037   -3.4550 H         1 <0>         0.1813
     44 H16        -5.4196   -4.6863   -1.5050 H         1 <0>         0.1297
     45 H17        -5.3450   -6.2672    0.3779 H         1 <0>         0.1316
     46 H18        -7.3623   -6.6793    1.7246 H         1 <0>         0.1316
     47 H19        -9.5529   -3.9184   -0.6783 H         1 <0>         0.1326
@<TRIPOS>BOND
     1    1    2 1
     2    1   32 1
     3    1   33 1
     4    1   34 1
     5    2    3 1
     6    2    4 1
     7    2   10 1
     8    4    9 ar
     9    4    5 ar
    10    5    6 ar
    11    5   35 1
    12    6    7 ar
    13    6   36 1
    14    7    8 ar
    15    7   37 1
    16    8    9 ar
    17    8   38 1
    18    9   39 1
    19   10   11 am
    20   10   40 1
    21   11   12 2
    22   11   13 1
    23   13   17 1
    24   13   14 2
    25   14   15 1
    26   14   41 1
    27   15   16 2
    28   15   19 1
    29   16   17 1
    30   16   42 1
    31   17   18 1
    32   19   23 2
    33   19   20 1
    34   20   25 1
    35   20   21 2
    36   21   43 1
    37   21   22 1
    38   22   23 1
    39   22   24 1
    40   25   30 ar
    41   25   26 ar
    42   26   27 ar
    43   26   44 1
    44   27   28 ar
    45   27   45 1
    46   28   29 ar
    47   28   46 1
    48   29   30 ar
    49   29   31 1
    50   30   47 1
@<TRIPOS>MOLECULE
CHEMBL162
   62    69     0     0     0
SMALL
USER_CHARGES

@<TRIPOS>ATOM
      1 C1         -0.1276    1.5938   -0.2902 C.3       1 <0>        -0.1687
      2 C2         -0.0844    0.0680   -0.1855 C.3       1 <0>         0.3345
      3 C3          0.5692   -0.4497   -1.4608 C.3       1 <0>         0.0405
      4 H1          1.4795    0.1163   -1.6584 H         1 <0>         0.1372
      5 C4          0.9165   -1.9328   -1.2885 C.3       1 <0>        -0.0062
      6 H2          1.3941   -2.3067   -2.1942 H         1 <0>         0.1555
      7 C5          1.8808   -2.0612   -0.1039 C.3       1 <0>        -0.1828
      8 C6          1.2106   -1.5234    1.1545 C.3       1 <0>         0.3001
      9 O1          0.6584   -0.2480    0.9698 O.3       1 <0>        -0.3232
     10 N1          0.2248   -2.4800    1.6600 N.pl3     1 <0>        -0.5368
     11 C7          0.4774   -3.5588    2.4701 C.ar      1 <0>         0.1470
     12 C8          1.6719   -4.0282    3.0159 C.ar      1 <0>        -0.1521
     13 C9          1.6013   -5.1613    3.8083 C.ar      1 <0>        -0.0582
     14 C10         0.4065   -5.8141    4.0588 C.ar      1 <0>        -0.1457
     15 C11        -0.7928   -5.3694    3.5296 C.ar      1 <0>        -0.0281
     16 C12        -0.7420   -4.2270    2.7281 C.ar      1 <0>        -0.1133
     17 C13        -1.7834   -3.4873    2.0211 C.ar      1 <0>         0.0272
     18 C14        -1.1387   -2.4235    1.3862 C.ar      1 <0>         0.0375
     19 C15        -1.8766   -1.5121    0.6225 C.ar      1 <0>         0.0893
     20 N2         -1.4701   -0.3965   -0.1042 N.pl3     1 <0>        -0.5183
     21 C16        -2.5609    0.1893   -0.7020 C.ar      1 <0>         0.1620
     22 C17        -2.6555    1.3256   -1.5046 C.ar      1 <0>        -0.1301
     23 C18        -3.9158    1.6704   -1.9636 C.ar      1 <0>        -0.0737
     24 C19        -5.0430    0.9315   -1.6503 C.ar      1 <0>        -0.1357
     25 C20        -4.9749   -0.2010   -0.8555 C.ar      1 <0>        -0.0503
     26 C21        -3.7134   -0.5626   -0.3834 C.ar      1 <0>        -0.1044
     27 C22        -3.2655   -1.6685    0.4924 C.ar      1 <0>        -0.0362
     28 C23        -3.9045   -2.7331    1.1195 C.ar      1 <0>        -0.0289
     29 C24        -3.1819   -3.6452    1.8815 C.ar      1 <0>        -0.1255
     30 C25        -4.1160   -4.6505    2.4114 C.2       1 <0>         0.5633
     31 O2         -3.7988   -5.5888    3.1172 O.2       1 <0>        -0.5106
     32 N3         -5.3694   -4.3854    2.0058 N.am      1 <0>        -0.7162
     33 C26        -5.3459   -3.1769    1.1740 C.3       1 <0>         0.1359
     34 N4         -0.3065   -2.7008   -1.0194 N.4       1 <0>        -0.5253
     35 C27         0.0148   -4.1335   -0.9747 C.3       1 <0>        -0.0497
     36 O3         -0.3352   -0.2957   -2.5564 O.3       1 <0>        -0.3613
     37 C28         0.3074   -0.0892   -3.8159 C.3       1 <0>         0.0162
     38 H3          0.8308    2.0068    0.0247 H         1 <0>         0.0984
     39 H4         -0.3256    1.8817   -1.3227 H         1 <0>         0.1037
     40 H5         -0.9185    1.9799    0.3528 H         1 <0>         0.0921
     41 H6          2.1400   -3.1098    0.0419 H         1 <0>         0.1233
     42 H7          2.7852   -1.4878   -0.3076 H         1 <0>         0.1455
     43 H8          1.9835   -1.4379    1.9183 H         1 <0>         0.1550
     44 H9          2.6113   -3.5296    2.8282 H         1 <0>         0.1364
     45 H10         2.5093   -5.5494    4.2456 H         1 <0>         0.1359
     46 H11         0.4102   -6.6943    4.6846 H         1 <0>         0.1352
     47 H12        -1.7231   -5.8814    3.7271 H         1 <0>         0.1602
     48 H13        -1.7841    1.9115   -1.7569 H         1 <0>         0.1438
     49 H14        -4.0225    2.5459   -2.5869 H         1 <0>         0.1335
     50 H15        -6.0015    1.2460   -2.0361 H         1 <0>         0.1333
     51 H16        -5.8562   -0.7761   -0.6128 H         1 <0>         0.1416
     52 H17        -6.1577   -4.9060    2.2257 H         1 <0>         0.4348
     53 H18        -5.9609   -2.3989    1.6262 H         1 <0>         0.1115
     54 H19        -5.7062   -3.4047    0.1708 H         1 <0>         0.1104
     55 H20        -0.6946   -2.4153   -0.1328 H         1 <0>         0.4186
     56 H21         0.7414   -4.3184   -0.1836 H         1 <0>         0.1191
     57 H22        -0.8927   -4.7033   -0.7750 H         1 <0>         0.1256
     58 H23         0.4340   -4.4418   -1.9324 H         1 <0>         0.1255
     59 H24        -0.4469    0.0185   -4.5954 H         1 <0>         0.1100
     60 H25         0.9142    0.8152   -3.7703 H         1 <0>         0.0633
     61 H26         0.9451   -0.9435   -4.0429 H         1 <0>         0.0514
     62 H27        -0.9792   -2.5296   -1.7517 H         1 <0>         0.4274
@<TRIPOS>BOND
     1    1    2 1
     2    1   38 1
     3    1   39 1
     4    1   40 1
     5    2    9 1
     6    2   20 1
     7    2    3 1
     8    3    4 1
     9    3    5 1
    10    3   36 1
    11    5    6 1
    12    5    7 1
    13    5   34 1
    14    7    8 1
    15    7   41 1
    16    7   42 1
    17    8    9 1
    18    8   10 1
    19    8   43 1
    20   10   18 1
    21   10   11 1
    22   11   16 ar
    23   11   12 ar
    24   12   13 ar
    25   12   44 1
    26   13   14 ar
    27   13   45 1
    28   14   15 ar
    29   14   46 1
    30   15   16 ar
    31   15   47 1
    32   16   17 1
    33   17   29 ar
    34   17   18 ar
    35   18   19 ar
    36   19   27 ar
    37   19   20 1
    38   20   21 1
    39   21   26 ar
    40   21   22 ar
    41   22   23 ar
    42   22   48 1
    43   23   24 ar
    44   23   49 1
    45   24   25 ar
    46   24   50 1
    47   25   26 ar
    48   25   51 1
    49   26   27 1
    50   27   28 ar
    51   28   33 1
    52   28   29 ar
    53   29   30 1
    54   30   31 2
    55   30   32 am
    56   32   33 1
    57   32   52 1
    58   33   53 1
    59   33   54 1
    60   34   35 1
    61   34   55 1
    62   34   62 1
    63   35   56 1
    64   35   57 1
    65   35   58 1
    66   36   37 1
    67   37   59 1
    68   37   60 1
    69   37   61 1
@<TRIPOS>MOLECULE
CHEMBL162__1
   61    68     0     0     0
SMALL
USER_CHARGES

@<TRIPOS>ATOM
      1 C1         -0.0567    1.5513   -0.0894 C.3       1 <0>        -0.1681
      2 C2         -0.0278    0.0218   -0.0599 C.3       1 <0>         0.3623
      3 C3          0.5811   -0.4397   -1.3782 C.3       1 <0>         0.0679
      4 H1          1.4914    0.1262   -1.5761 H         1 <0>         0.0865
      5 C4          0.9165   -1.9328   -1.2885 C.3       1 <0>         0.0550
      6 H2          1.3622   -2.2669   -2.2254 H         1 <0>         0.0644
      7 C5          1.9146   -2.1282   -0.1417 C.3       1 <0>        -0.1713
      8 C6          1.2889   -1.6457    1.1613 C.3       1 <0>         0.3303
      9 O1          0.7459   -0.3574    1.0554 O.3       1 <0>        -0.3432
     10 N1          0.3079   -2.6158    1.6500 N.pl3     1 <0>        -0.5147
     11 C7          0.5725   -3.7353    2.3988 C.ar      1 <0>         0.1480
     12 C8          1.7775   -4.2425    2.8844 C.ar      1 <0>        -0.1567
     13 C9          1.7179   -5.4120    3.6229 C.ar      1 <0>        -0.0771
     14 C10         0.5239   -6.0644    3.8782 C.ar      1 <0>        -0.1623
     15 C11        -0.6857   -5.5826    3.4081 C.ar      1 <0>        -0.0380
     16 C12        -0.6461   -4.4031    2.6615 C.ar      1 <0>        -0.1052
     17 C13        -1.6998   -3.6196    2.0235 C.ar      1 <0>        -0.0146
     18 C14        -1.0625   -2.5326    1.4212 C.ar      1 <0>         0.1328
     19 C15        -1.8127   -1.5778    0.7254 C.ar      1 <0>         0.2189
     20 N2         -1.4156   -0.4323    0.0413 N.pl3     1 <0>        -0.4798
     21 C16        -2.5171    0.1927   -0.4937 C.ar      1 <0>         0.1719
     22 C17        -2.6230    1.3676   -1.2371 C.ar      1 <0>        -0.1371
     23 C18        -3.8926    1.7468   -1.6400 C.ar      1 <0>        -0.0918
     24 C19        -5.0181    1.0048   -1.3284 C.ar      1 <0>        -0.1543
     25 C20        -4.9390   -0.1657   -0.5916 C.ar      1 <0>        -0.0609
     26 C21        -3.6680   -0.5623   -0.1765 C.ar      1 <0>        -0.0961
     27 C22        -3.2066   -1.7140    0.6307 C.ar      1 <0>        -0.0806
     28 C23        -3.8384   -2.8014    1.2249 C.ar      1 <0>        -0.0396
     29 C24        -3.1037   -3.7566    1.9194 C.ar      1 <0>        -0.1488
     30 C25        -4.0327   -4.7771    2.4285 C.2       1 <0>         0.5678
     31 O2         -3.7051   -5.7517    3.0781 O.2       1 <0>        -0.5303
     32 N3         -5.2947   -4.4802    2.0748 N.am      1 <0>        -0.7263
     33 C26        -5.2825   -3.2330    1.3021 C.3       1 <0>         0.1443
     34 N4         -0.3065   -2.7008   -1.0194 N.3       1 <0>        -0.6725
     35 C27        -0.9816   -3.0711   -2.2704 C.3       1 <0>         0.0321
     36 O3         -0.3541   -0.2236   -2.4368 O.3       1 <0>        -0.3500
     37 C28         0.2525    0.0376   -3.7040 C.3       1 <0>         0.0254
     38 H3          0.9143    1.9390    0.2190 H         1 <0>         0.0847
     39 H4         -0.2789    1.8910   -1.1010 H         1 <0>         0.0945
     40 H5         -0.8258    1.9134    0.5927 H         1 <0>         0.0811
     41 H6          2.1661   -3.1852   -0.0547 H         1 <0>         0.0955
     42 H7          2.8189   -1.5546   -0.3450 H         1 <0>         0.1024
     43 H8          2.0854   -1.6051    1.9042 H         1 <0>         0.1256
     44 H9          2.7165   -3.7447    2.6923 H         1 <0>         0.1264
     45 H10         2.6343   -5.8299    4.0129 H         1 <0>         0.1227
     46 H11         0.5364   -6.9739    4.4603 H         1 <0>         0.1222
     47 H12        -1.6153   -6.0942    3.6091 H         1 <0>         0.1517
     48 H13        -1.7529    1.9564   -1.4875 H         1 <0>         0.1345
     49 H14        -4.0081    2.6526   -2.2167 H         1 <0>         0.1197
     50 H15        -5.9842    1.3471   -1.6689 H         1 <0>         0.1193
     51 H16        -5.8191   -0.7431   -0.3501 H         1 <0>         0.1299
     52 H17        -6.0819   -5.0031    2.2935 H         1 <0>         0.4244
     53 H18        -5.8747   -2.4718    1.8101 H         1 <0>         0.0969
     54 H19        -5.6755   -3.4081    0.3006 H         1 <0>         0.0963
     55 H20        -0.1054   -3.5172   -0.4616 H         1 <0>         0.3444
     56 H21        -1.8838   -3.6387   -2.0422 H         1 <0>         0.0645
     57 H22        -1.2495   -2.1685   -2.8197 H         1 <0>         0.0818
     58 H23        -0.3126   -3.6808   -2.8776 H         1 <0>         0.0150
     59 H24        -0.5237    0.1905   -4.4538 H         1 <0>         0.0929
     60 H25         0.8707    0.9325   -3.6333 H         1 <0>         0.0448
     61 H26         0.8732   -0.8111   -3.9915 H         1 <0>         0.0400
@<TRIPOS>BOND
     1    1    2 1
     2    1   38 1
     3    1   39 1
     4    1   40 1
     5    2    9 1
     6    2   20 1
     7    2    3 1
     8    3    4 1
     9    3    5 1
    10    3   36 1
    11    5    6 1
    12    5    7 1
    13    5   34 1
    14    7    8 1
    15    7   41 1
    16    7   42 1
    17    8    9 1
    18    8   10 1
    19    8   43 1
    20   10   18 1
    21   10   11 1
    22   11   16 ar
    23   11   12 ar
    24   12   13 ar
    25   12   44 1
    26   13   14 ar
    27   13   45 1
    28   14   15 ar
    29   14   46 1
    30   15   16 ar
    31   15   47 1
    32   16   17 1
    33   17   29 ar
    34   17   18 ar
    35   18   19 ar
    36   19   27 ar
    37   19   20 1
    38   20   21 1
    39   21   26 ar
    40   21   22 ar
    41   22   23 ar
    42   22   48 1
    43   23   24 ar
    44   23   49 1
    45   24   25 ar
    46   24   50 1
    47   25   26 ar
    48   25   51 1
    49   26   27 1
    50   27   28 ar
    51   28   33 1
    52   28   29 ar
    53   29   30 1
    54   30   31 2
    55   30   32 am
    56   32   33 1
    57   32   52 1
    58   33   53 1
    59   33   54 1
    60   34   35 1
    61   34   55 1
    62   35   56 1
    63   35   57 1
    64   35   58 1
    65   36   37 1
    66   37   59 1
    67   37   60 1
    68   37   61 1
@<TRIPOS>MOLECULE
CHEMBL219683
   45    48     0     0     0
SMALL
USER_CHARGES

@<TRIPOS>ATOM
      1 C1          0.4585    0.4884    0.9561 C.ar      1 <0>        -0.1055
      2 C2          1.6076    1.2518    1.0011 C.ar      1 <0>        -0.0997
      3 C3          2.4549    1.2978   -0.1049 C.ar      1 <0>         0.0185
      4 C4          2.1363    0.5716   -1.2514 C.ar      1 <0>        -0.1041
      5 C5          0.9840   -0.1888   -1.2854 C.ar      1 <0>        -0.0324
      6 C6          0.1465   -0.2303   -0.1835 C.ar      1 <0>        -0.1160
      7 Cl1         0.5845   -1.0937   -2.7121 Cl        1 <0>        -0.0714
      8 C7          3.6902    2.1165   -0.0621 C.2       1 <0>        -0.2053
      9 C8          4.0508    3.1299   -0.9685 C.2       1 <0>         0.0722
     10 N1          5.2047    3.6215   -0.6039 N.2       1 <0>        -0.2878
     11 N2          5.6429    2.9556    0.5466 N.pl3     1 <0>        -0.4648
     12 H1          6.4701    3.1267    1.0233 H         1 <0>         0.4423
     13 C9          4.7029    2.0294    0.8832 C.2       1 <0>         0.1936
     14 C10         4.7529    1.1045    2.0356 C.2       1 <0>        -0.1462
     15 C11         5.0814    1.4409    3.3654 C.2       1 <0>        -0.0801
     16 C12         5.0056    0.2925    4.1007 C.2       1 <0>        -0.0496
     17 N3          4.6408   -0.7344    3.2595 N.pl3     1 <0>        -0.5277
     18 H2          4.5146   -1.6594    3.5227 H         1 <0>         0.4224
     19 C13         4.4814   -0.2472    2.0125 C.2       1 <0>         0.0808
     20 C14         5.2686    0.1735    5.5394 C.2       1 <0>         0.5885
     21 O1          5.5864    1.1561    6.1831 O.2       1 <0>        -0.5254
     22 N4          5.1581   -1.0240    6.1478 N.am      1 <0>        -0.7249
     23 C15         5.4207   -1.1428    7.5842 C.3       1 <0>         0.1111
     24 C16         5.2263   -2.5966    8.0197 C.3       1 <0>         0.0670
     25 C17         5.3880   -2.7108    9.5507 C.3       1 <0>        -0.1484
     26 C18         6.1571   -4.0516    9.7018 C.3       1 <0>        -0.1565
     27 C19         7.0448   -4.0262    8.4321 C.3       1 <0>         0.0490
     28 O2          6.2284   -3.4229    7.4157 O.3       1 <0>        -0.3782
     29 H3         -0.1960    0.4488    1.8142 H         1 <0>         0.1304
     30 H4          1.8497    1.8128    1.8916 H         1 <0>         0.1271
     31 H5          2.7889    0.6038   -2.1113 H         1 <0>         0.1339
     32 H6         -0.7536   -0.8264   -0.2139 H         1 <0>         0.1309
     33 H7          3.4713    3.4477   -1.8226 H         1 <0>         0.1868
     34 H8          5.3438    2.4220    3.7330 H         1 <0>         0.1527
     35 H9          4.1925   -0.8188    1.1429 H         1 <0>         0.1801
     36 H10         4.9048   -1.8072    5.6347 H         1 <0>         0.3979
     37 H11         6.4452   -0.8349    7.7930 H         1 <0>         0.0762
     38 H12         4.7300   -0.5034    8.1339 H         1 <0>         0.0826
     39 H13         4.2354   -2.9416    7.7244 H         1 <0>         0.0885
     40 H14         5.9758   -1.8803    9.9417 H         1 <0>         0.0839
     41 H15         4.4158   -2.7640   10.0406 H         1 <0>         0.0885
     42 H16         6.7653   -4.0558   10.6063 H         1 <0>         0.0872
     43 H17         5.4736   -4.9005    9.6863 H         1 <0>         0.0808
     44 H18         7.9374   -3.4253    8.6065 H         1 <0>         0.0627
     45 H19         7.3209   -5.0402    8.1431 H         1 <0>         0.0883
@<TRIPOS>BOND
     1    1    6 ar
     2    1    2 ar
     3    1   29 1
     4    2    3 ar
     5    2   30 1
     6    3    4 ar
     7    3    8 1
     8    4    5 ar
     9    4   31 1
    10    5    6 ar
    11    5    7 1
    12    6   32 1
    13    8   13 2
    14    8    9 1
    15    9   10 2
    16    9   33 1
    17   10   11 1
    18   11   12 1
    19   11   13 1
    20   13   14 1
    21   14   19 2
    22   14   15 1
    23   15   16 2
    24   15   34 1
    25   16   17 1
    26   16   20 1
    27   17   18 1
    28   17   19 1
    29   19   35 1
    30   20   21 2
    31   20   22 am
    32   22   23 1
    33   22   36 1
    34   23   24 1
    35   23   37 1
    36   23   38 1
    37   24   28 1
    38   24   25 1
    39   24   39 1
    40   25   26 1
    41   25   40 1
    42   25   41 1
    43   26   27 1
    44   26   42 1
    45   26   43 1
    46   27   28 1
    47   27   44 1
    48   27   45 1
@<TRIPOS>MOLECULE
CHEMBL219683__1
   45    48     0     0     0
SMALL
USER_CHARGES

@<TRIPOS>ATOM
      1 C1         -0.0167    1.3786    0.0096 C.ar      1 <0>        -0.1041
      2 C2          1.1676    2.0878    0.0021 C.ar      1 <0>        -0.1109
      3 C3          2.3840    1.4085   -0.0131 C.ar      1 <0>         0.0147
      4 C4          2.3983    0.0151   -0.0207 C.ar      1 <0>        -0.0963
      5 C5          1.2076   -0.6849   -0.0131 C.ar      1 <0>        -0.0325
      6 C6          0.0021   -0.0041    0.0020 C.ar      1 <0>        -0.1165
      7 Cl1         1.2227   -2.4208   -0.0230 Cl        1 <0>        -0.0702
      8 C7          3.6597    2.1660   -0.0217 C.2       1 <0>        -0.2032
      9 C8          3.9817    3.1931   -0.8578 C.2       1 <0>         0.0821
     10 N1          5.2257    3.6075   -0.5427 N.pl3     1 <0>        -0.4702
     11 N2          5.6983    2.8234    0.5164 N.2       1 <0>        -0.2806
     12 H1          5.7109    4.3266   -0.9767 H         1 <0>         0.4443
     13 C9          4.7639    1.9580    0.8421 C.2       1 <0>         0.1764
     14 C10         4.8515    0.9411    1.9196 C.2       1 <0>        -0.1188
     15 C11         6.0090    0.2429    2.3146 C.2       1 <0>        -0.0688
     16 C12         5.6459   -0.5903    3.3354 C.2       1 <0>        -0.0554
     17 N3          4.3004   -0.4148    3.5685 N.pl3     1 <0>        -0.5316
     18 H2          3.7794   -0.8811    4.2408 H         1 <0>         0.4202
     19 C13         3.8255    0.5150    2.7144 C.2       1 <0>         0.0704
     20 C14         6.5335   -1.5100    4.0557 C.2       1 <0>         0.5903
     21 O1          7.7114   -1.5775    3.7574 O.2       1 <0>        -0.5264
     22 N4          6.0445   -2.2801    5.0478 N.am      1 <0>        -0.7262
     23 C15         6.9308   -3.1985    5.7669 C.3       1 <0>         0.1116
     24 C16         6.1311   -3.9479    6.8345 C.3       1 <0>         0.0671
     25 C17         7.0781   -4.8326    7.6735 C.3       1 <0>        -0.1484
     26 C18         6.2295   -6.1162    7.8842 C.3       1 <0>        -0.1565
     27 C19         5.4534   -6.1789    6.5446 C.3       1 <0>         0.0491
     28 O2          5.1741   -4.8105    6.2085 O.3       1 <0>        -0.3773
     29 H3         -0.9598    1.9047    0.0260 H         1 <0>         0.1325
     30 H4          1.1513    3.1677    0.0077 H         1 <0>         0.1286
     31 H5          3.3383   -0.5164   -0.0328 H         1 <0>         0.1339
     32 H6         -0.9269   -0.5549    0.0079 H         1 <0>         0.1316
     33 H7          3.3526    3.6020   -1.6347 H         1 <0>         0.1813
     34 H8          6.9969    0.3459    1.8906 H         1 <0>         0.1526
     35 H9          2.8041    0.8626    2.6654 H         1 <0>         0.1748
     36 H10         5.1056   -2.2264    5.2856 H         1 <0>         0.3976
     37 H11         7.3595   -3.9139    5.0652 H         1 <0>         0.0757
     38 H12         7.7313   -2.6325    6.2433 H         1 <0>         0.0817
     39 H13         5.6191   -3.2352    7.4811 H         1 <0>         0.0881
     40 H14         7.9904   -5.0571    7.1208 H         1 <0>         0.0839
     41 H15         7.3080   -4.3586    8.6277 H         1 <0>         0.0880
     42 H16         6.8663   -6.9917    8.0106 H         1 <0>         0.0867
     43 H17         5.5486   -6.0029    8.7278 H         1 <0>         0.0803
     44 H18         6.0687   -6.6402    5.7722 H         1 <0>         0.0626
     45 H19         4.5243   -6.7345    6.6714 H         1 <0>         0.0878
@<TRIPOS>BOND
     1    1    6 ar
     2    1    2 ar
     3    1   29 1
     4    2    3 ar
     5    2   30 1
     6    3    4 ar
     7    3    8 1
     8    4    5 ar
     9    4   31 1
    10    5    6 ar
    11    5    7 1
    12    6   32 1
    13    8   13 1
    14    8    9 2
    15    9   33 1
    16    9   10 1
    17   10   11 1
    18   10   12 1
    19   11   13 2
    20   13   14 1
    21   14   19 2
    22   14   15 1
    23   15   16 2
    24   15   34 1
    25   16   17 1
    26   16   20 1
    27   17   18 1
    28   17   19 1
    29   19   35 1
    30   20   21 2
    31   20   22 am
    32   22   23 1
    33   22   36 1
    34   23   24 1
    35   23   37 1
    36   23   38 1
    37   24   28 1
    38   24   25 1
    39   24   39 1
    40   25   26 1
    41   25   40 1
    42   25   41 1
    43   26   27 1
    44   26   42 1
    45   26   43 1
    46   27   28 1
    47   27   44 1
    48   27   45 1
@<TRIPOS>MOLECULE
CHEMBL219683__2
   45    48     0     0     0
SMALL
USER_CHARGES

@<TRIPOS>ATOM
      1 C1          0.4585    0.4884    0.9561 C.ar      1 <0>        -0.1051
      2 C2          1.6076    1.2518    1.0011 C.ar      1 <0>        -0.0995
      3 C3          2.4549    1.2978   -0.1049 C.ar      1 <0>         0.0181
      4 C4          2.1363    0.5716   -1.2514 C.ar      1 <0>        -0.1042
      5 C5          0.9840   -0.1888   -1.2854 C.ar      1 <0>        -0.0325
      6 C6          0.1465   -0.2303   -0.1835 C.ar      1 <0>        -0.1158
      7 Cl1         0.5845   -1.0937   -2.7121 Cl        1 <0>        -0.0716
      8 C7          3.6902    2.1165   -0.0621 C.2       1 <0>        -0.2049
      9 C8          4.0508    3.1299   -0.9685 C.2       1 <0>         0.0723
     10 N1          5.2047    3.6215   -0.6039 N.2       1 <0>        -0.2879
     11 N2          5.6429    2.9556    0.5466 N.pl3     1 <0>        -0.4649
     12 H1          6.4701    3.1267    1.0233 H         1 <0>         0.4422
     13 C9          4.7029    2.0294    0.8832 C.2       1 <0>         0.1934
     14 C10         4.7529    1.1045    2.0356 C.2       1 <0>        -0.1461
     15 C11         5.0814    1.4409    3.3654 C.2       1 <0>        -0.0800
     16 C12         5.0056    0.2925    4.1007 C.2       1 <0>        -0.0495
     17 N3          4.6408   -0.7344    3.2595 N.pl3     1 <0>        -0.5277
     18 H2          4.5146   -1.6594    3.5227 H         1 <0>         0.4224
     19 C13         4.4814   -0.2472    2.0125 C.2       1 <0>         0.0807
     20 C14         5.2686    0.1735    5.5394 C.2       1 <0>         0.5887
     21 O1          5.5864    1.1561    6.1831 O.2       1 <0>        -0.5251
     22 N4          5.1581   -1.0240    6.1478 N.am      1 <0>        -0.7253
     23 C15         5.4207   -1.1428    7.5842 C.3       1 <0>         0.1233
     24 C16         5.2263   -2.5966    8.0197 C.3       1 <0>         0.0663
     25 C17         5.4298   -2.7315    9.5498 C.3       1 <0>        -0.1485
     26 C18         4.5942   -4.0064    9.8470 C.3       1 <0>        -0.1561
     27 C19         3.4364   -3.8830    8.8333 C.3       1 <0>         0.0505
     28 O2          3.8713   -3.0109    7.7835 O.3       1 <0>        -0.3800
     29 H3         -0.1960    0.4488    1.8142 H         1 <0>         0.1307
     30 H4          1.8497    1.8128    1.8916 H         1 <0>         0.1271
     31 H5          2.7889    0.6038   -2.1113 H         1 <0>         0.1338
     32 H6         -0.7536   -0.8264   -0.2139 H         1 <0>         0.1310
     33 H7          3.4713    3.4477   -1.8226 H         1 <0>         0.1868
     34 H8          5.3438    2.4220    3.7330 H         1 <0>         0.1528
     35 H9          4.1925   -0.8188    1.1429 H         1 <0>         0.1801
     36 H10         4.9048   -1.8072    5.6347 H         1 <0>         0.3987
     37 H11         6.4452   -0.8349    7.7930 H         1 <0>         0.0853
     38 H12         4.7300   -0.5034    8.1339 H         1 <0>         0.0789
     39 H13         5.9192   -3.2467    7.4855 H         1 <0>         0.0794
     40 H14         6.4809   -2.8849    9.7942 H         1 <0>         0.0892
     41 H15         5.0279   -1.8665   10.0773 H         1 <0>         0.0853
     42 H16         5.1797   -4.9065    9.6595 H         1 <0>         0.0790
     43 H17         4.2174   -3.9935   10.8697 H         1 <0>         0.0863
     44 H18         3.1974   -4.8644    8.4236 H         1 <0>         0.0708
     45 H19         2.5587   -3.4621    9.3238 H         1 <0>         0.0720
@<TRIPOS>BOND
     1    1    6 ar
     2    1    2 ar
     3    1   29 1
     4    2    3 ar
     5    2   30 1
     6    3    4 ar
     7    3    8 1
     8    4    5 ar
     9    4   31 1
    10    5    6 ar
    11    5    7 1
    12    6   32 1
    13    8   13 2
    14    8    9 1
    15    9   10 2
    16    9   33 1
    17   10   11 1
    18   11   12 1
    19   11   13 1
    20   13   14 1
    21   14   19 2
    22   14   15 1
    23   15   16 2
    24   15   34 1
    25   16   17 1
    26   16   20 1
    27   17   18 1
    28   17   19 1
    29   19   35 1
    30   20   21 2
    31   20   22 am
    32   22   23 1
    33   22   36 1
    34   23   24 1
    35   23   37 1
    36   23   38 1
    37   24   28 1
    38   24   25 1
    39   24   39 1
    40   25   26 1
    41   25   40 1
    42   25   41 1
    43   26   27 1
    44   26   42 1
    45   26   43 1
    46   27   28 1
    47   27   44 1
    48   27   45 1
@<TRIPOS>MOLECULE
CHEMBL219683__3
   45    48     0     0     0
SMALL
USER_CHARGES

@<TRIPOS>ATOM
      1 C1         -0.0167    1.3786    0.0096 C.ar      1 <0>        -0.1040
      2 C2          1.1676    2.0878    0.0021 C.ar      1 <0>        -0.1107
      3 C3          2.3840    1.4085   -0.0131 C.ar      1 <0>         0.0150
      4 C4          2.3983    0.0151   -0.0207 C.ar      1 <0>        -0.0963
      5 C5          1.2076   -0.6849   -0.0131 C.ar      1 <0>        -0.0326
      6 C6          0.0021   -0.0041    0.0020 C.ar      1 <0>        -0.1165
      7 Cl1         1.2227   -2.4208   -0.0230 Cl        1 <0>        -0.0711
      8 C7          3.6597    2.1660   -0.0217 C.2       1 <0>        -0.2035
      9 C8          3.9817    3.1931   -0.8578 C.2       1 <0>         0.0822
     10 N1          5.2257    3.6075   -0.5427 N.pl3     1 <0>        -0.4701
     11 N2          5.6983    2.8234    0.5164 N.2       1 <0>        -0.2804
     12 H1          5.7109    4.3266   -0.9767 H         1 <0>         0.4443
     13 C9          4.7639    1.9580    0.8421 C.2       1 <0>         0.1765
     14 C10         4.8515    0.9411    1.9196 C.2       1 <0>        -0.1189
     15 C11         6.0090    0.2429    2.3146 C.2       1 <0>        -0.0686
     16 C12         5.6459   -0.5903    3.3354 C.2       1 <0>        -0.0553
     17 N3          4.3004   -0.4148    3.5685 N.pl3     1 <0>        -0.5316
     18 H2          3.7794   -0.8811    4.2408 H         1 <0>         0.4202
     19 C13         3.8255    0.5150    2.7144 C.2       1 <0>         0.0705
     20 C14         6.5335   -1.5100    4.0557 C.2       1 <0>         0.5905
     21 O1          7.7114   -1.5775    3.7574 O.2       1 <0>        -0.5261
     22 N4          6.0445   -2.2801    5.0478 N.am      1 <0>        -0.7266
     23 C15         6.9308   -3.1985    5.7669 C.3       1 <0>         0.1237
     24 C16         6.1311   -3.9479    6.8345 C.3       1 <0>         0.0665
     25 C17         7.0645   -4.8733    7.6550 C.3       1 <0>        -0.1486
     26 C18         6.2673   -4.9943    8.9823 C.3       1 <0>        -0.1560
     27 C19         5.6134   -3.6007    9.0999 C.3       1 <0>         0.0505
     28 O2          5.5856   -3.0236    7.7893 O.3       1 <0>        -0.3796
     29 H3         -0.9598    1.9047    0.0260 H         1 <0>         0.1326
     30 H4          1.1513    3.1677    0.0077 H         1 <0>         0.1287
     31 H5          3.3383   -0.5164   -0.0328 H         1 <0>         0.1339
     32 H6         -0.9269   -0.5549    0.0079 H         1 <0>         0.1315
     33 H7          3.3526    3.6020   -1.6347 H         1 <0>         0.1813
     34 H8          6.9969    0.3459    1.8906 H         1 <0>         0.1527
     35 H9          2.8041    0.8626    2.6654 H         1 <0>         0.1747
     36 H10         5.1056   -2.2264    5.2856 H         1 <0>         0.3984
     37 H11         7.3595   -3.9139    5.0652 H         1 <0>         0.0848
     38 H12         7.7313   -2.6325    6.2433 H         1 <0>         0.0780
     39 H13         5.3331   -4.5279    6.3709 H         1 <0>         0.0794
     40 H14         7.1763   -5.8449    7.1739 H         1 <0>         0.0890
     41 H15         8.0349   -4.4052    7.8208 H         1 <0>         0.0851
     42 H16         5.5089   -5.7737    8.9096 H         1 <0>         0.0787
     43 H17         6.9373   -5.1805    9.8216 H         1 <0>         0.0858
     44 H18         4.5974   -3.7000    9.4819 H         1 <0>         0.0703
     45 H19         6.2012   -2.9717    9.7685 H         1 <0>         0.0715
@<TRIPOS>BOND
     1    1    6 ar
     2    1    2 ar
     3    1   29 1
     4    2    3 ar
     5    2   30 1
     6    3    4 ar
     7    3    8 1
     8    4    5 ar
     9    4   31 1
    10    5    6 ar
    11    5    7 1
    12    6   32 1
    13    8   13 1
    14    8    9 2
    15    9   33 1
    16    9   10 1
    17   10   11 1
    18   10   12 1
    19   11   13 2
    20   13   14 1
    21   14   19 2
    22   14   15 1
    23   15   16 2
    24   15   34 1
    25   16   17 1
    26   16   20 1
    27   17   18 1
    28   17   19 1
    29   19   35 1
    30   20   21 2
    31   20   22 am
    32   22   23 1
    33   22   36 1
    34   23   24 1
    35   23   37 1
    36   23   38 1
    37   24   28 1
    38   24   25 1
    39   24   39 1
    40   25   26 1
    41   25   40 1
    42   25   41 1
    43   26   27 1
    44   26   42 1
    45   26   43 1
    46   27   28 1
    47   27   44 1
    48   27   45 1
@<TRIPOS>MOLECULE
CHEMBL577193
   54    57     0     0     0
SMALL
USER_CHARGES

@<TRIPOS>ATOM
      1 C1         -0.3527    1.4878    0.0468 C.3       1 <0>        -0.1009
      2 C2         -0.2414   -0.0149    0.0286 C.ar      1 <0>        -0.2408
      3 C3         -0.4511   -0.7258   -1.1386 C.ar      1 <0>         0.1906
      4 N1         -0.3458   -2.0455   -1.1214 N.ar      1 <0>        -0.5571
      5 C4         -0.0433   -2.6914   -0.0044 C.ar      1 <0>         0.5595
      6 N2          0.1650   -2.0504    1.1349 N.ar      1 <0>        -0.5538
      7 C5          0.0821   -0.7225    1.1904 C.ar      1 <0>         0.2982
      8 C6          0.3223   -0.0063    2.4652 C.2       1 <0>        -0.1530
      9 C7         -0.0086   -0.4639    3.7569 C.2       1 <0>        -0.0514
     10 C8          0.3867    0.5015    4.6378 C.2       1 <0>        -0.0612
     11 N3          0.9486    1.5340    3.9208 N.pl3     1 <0>        -0.5292
     12 H1          1.3135    2.3490    4.2997 H         1 <0>         0.4209
     13 C9          0.9160    1.2284    2.6098 C.2       1 <0>         0.0712
     14 C10         0.2375    0.4484    6.0968 C.2       1 <0>         0.5932
     15 O1         -0.2785   -0.5212    6.6207 O.2       1 <0>        -0.5231
     16 N4          0.6720    1.4734    6.8564 N.am      1 <0>        -0.7197
     17 C11         0.5231    1.4203    8.3128 C.3       1 <0>         0.1936
     18 H2          0.6519    0.3931    8.6540 H         1 <0>         0.1151
     19 C12        -0.8714    1.9156    8.7013 C.3       1 <0>         0.0671
     20 O2         -0.9989    3.2970    8.3583 O.3       1 <0>        -0.5678
     21 C13         1.5653    2.2980    8.9567 C.ar      1 <0>        -0.0798
     22 C14         1.8771    3.5239    8.3985 C.ar      1 <0>        -0.0878
     23 C15         2.8329    4.3294    8.9884 C.ar      1 <0>        -0.1063
     24 C16         3.4780    3.9095   10.1367 C.ar      1 <0>        -0.1061
     25 C17         3.1665    2.6831   10.6956 C.ar      1 <0>        -0.0331
     26 C18         2.2051    1.8798   10.1079 C.ar      1 <0>        -0.0995
     27 Cl1         3.9761    2.1551   12.1376 Cl        1 <0>        -0.0647
     28 N5          0.0571   -4.0729   -0.0296 N.pl3     1 <0>        -0.6424
     29 C19        -0.0448   -4.7591   -1.2435 C.ar      1 <0>         0.1663
     30 C20         0.5392   -4.2358   -2.3900 C.ar      1 <0>        -0.1105
     31 C21         0.4371   -4.9165   -3.5873 C.ar      1 <0>        -0.1014
     32 C22        -0.2455   -6.1177   -3.6456 C.ar      1 <0>        -0.1369
     33 C23        -0.8284   -6.6412   -2.5061 C.ar      1 <0>        -0.1001
     34 C24        -0.7252   -5.9685   -1.3043 C.ar      1 <0>        -0.1466
     35 H3          0.6189    1.9269   -0.1800 H         1 <0>         0.0691
     36 H4         -1.0792    1.8074   -0.7003 H         1 <0>         0.0696
     37 H5         -0.6782    1.8161    1.0339 H         1 <0>         0.0731
     38 H6         -0.6985   -0.2100   -2.0547 H         1 <0>         0.1692
     39 H7         -0.4849   -1.4014    4.0033 H         1 <0>         0.1551
     40 H8          1.2901    1.8472    1.8076 H         1 <0>         0.1845
     41 H9          1.0833    2.2463    6.4388 H         1 <0>         0.3965
     42 H10        -1.6246    1.3374    8.1661 H         1 <0>         0.0600
     43 H11        -1.0145    1.7931    9.7749 H         1 <0>         0.0600
     44 H12        -1.8602    3.6786    8.5768 H         1 <0>         0.3825
     45 H13         1.3739    3.8521    7.5010 H         1 <0>         0.1284
     46 H14         3.0761    5.2869    8.5520 H         1 <0>         0.1343
     47 H15         4.2254    4.5387   10.5972 H         1 <0>         0.1350
     48 H16         1.9583    0.9241   10.5463 H         1 <0>         0.1358
     49 H17         0.1980   -4.5641    0.7949 H         1 <0>         0.4232
     50 H18         1.0721   -3.2976   -2.3452 H         1 <0>         0.1263
     51 H19         0.8906   -4.5100   -4.4792 H         1 <0>         0.1238
     52 H20        -0.3238   -6.6480   -4.5831 H         1 <0>         0.1222
     53 H21        -1.3614   -7.5793   -2.5551 H         1 <0>         0.1252
     54 H22        -1.1769   -6.3801   -0.4138 H         1 <0>         0.1239
@<TRIPOS>BOND
     1    1    2 1
     2    1   35 1
     3    1   36 1
     4    1   37 1
     5    2    7 ar
     6    2    3 ar
     7    3    4 ar
     8    3   38 1
     9    4    5 ar
    10    5    6 ar
    11    5   28 1
    12    6    7 ar
    13    7    8 1
    14    8   13 2
    15    8    9 1
    16    9   10 2
    17    9   39 1
    18   10   11 1
    19   10   14 1
    20   11   12 1
    21   11   13 1
    22   13   40 1
    23   14   15 2
    24   14   16 am
    25   16   17 1
    26   16   41 1
    27   17   18 1
    28   17   19 1
    29   17   21 1
    30   19   20 1
    31   19   42 1
    32   19   43 1
    33   20   44 1
    34   21   26 ar
    35   21   22 ar
    36   22   23 ar
    37   22   45 1
    38   23   24 ar
    39   23   46 1
    40   24   25 ar
    41   24   47 1
    42   25   26 ar
    43   25   27 1
    44   26   48 1
    45   28   29 1
    46   28   49 1
    47   29   34 ar
    48   29   30 ar
    49   30   31 ar
    50   30   50 1
    51   31   32 ar
    52   31   51 1
    53   32   33 ar
    54   32   52 1
    55   33   34 ar
    56   33   53 1
    57   34   54 1
@<TRIPOS>MOLECULE
CHEMBL247250
   48    51     0     0     0
SMALL
USER_CHARGES

@<TRIPOS>ATOM
      1 C1         -0.7918   -1.1889    1.5773 C.3       1 <0>         0.1057
      2 N1         -0.0683   -0.6011    0.4471 N.am      1 <0>        -0.7475
      3 C2          0.4494   -1.3974   -0.5091 C.2       1 <0>         0.6904
      4 O1          0.3160   -2.6035   -0.4338 O.2       1 <0>        -0.5227
      5 N2          1.1149   -0.8566   -1.5489 N.am      1 <0>        -0.6702
      6 C3          1.7402   -1.6825   -2.4816 C.ar      1 <0>         0.3887
      7 C4          2.5179   -1.1201   -3.4877 C.ar      1 <0>        -0.2108
      8 C5          3.1329   -1.9513   -4.4069 C.ar      1 <0>        -0.0221
      9 C6          2.9483   -3.3222   -4.2877 C.ar      1 <0>        -0.2030
     10 C7          2.1626   -3.8119   -3.2636 C.ar      1 <0>         0.1604
     11 N3          1.5927   -2.9951   -2.3982 N.ar      1 <0>        -0.4735
     12 C8          3.5984   -4.2659   -5.2665 C.3       1 <0>         0.1785
     13 N4          4.9214   -4.6507   -4.7686 N.pl3     1 <0>        -0.6817
     14 C9          5.7146   -5.5200   -5.5055 C.2       1 <0>         0.4455
     15 C10         6.9805   -5.9193   -5.0685 C.2       1 <0>        -0.3999
     16 S1          7.4632   -6.9950   -6.4097 S.3       1 <0>         0.1508
     17 C11         6.0755   -6.8388   -7.3483 C.2       1 <0>         0.1080
     18 N5          5.3181   -6.0221   -6.6547 N.2       1 <0>        -0.5615
     19 C12         7.6839   -5.5686   -3.8916 C.2       1 <0>         0.6268
     20 O2          7.1798   -4.8081   -3.0845 O.2       1 <0>        -0.5278
     21 N6          8.9116   -6.0760   -3.6638 N.am      1 <0>        -0.6692
     22 C13         9.5629   -5.8157   -2.4518 C.ar      1 <0>         0.1772
     23 C14        10.9453   -5.6882   -2.4198 C.ar      1 <0>        -0.1270
     24 C15        11.5893   -5.4310   -1.2247 C.ar      1 <0>        -0.0576
     25 C16        10.8582   -5.3000   -0.0550 C.ar      1 <0>         0.0067
     26 C17         9.4715   -5.4279   -0.0838 C.ar      1 <0>         0.0509
     27 C18         8.8263   -5.6795   -1.2831 C.ar      1 <0>        -0.0883
     28 O3          8.9913   -5.2589    1.1829 O.3       1 <0>        -0.2840
     29 C19        10.1266   -5.4330    2.0511 C.3       1 <0>         0.5706
     30 O4         11.2464   -5.0508    1.2307 O.3       1 <0>        -0.2852
     31 F1         10.0255   -4.5946    3.1665 F         1 <0>        -0.1155
     32 F2         10.2415   -6.7696    2.4480 F         1 <0>        -0.1527
     33 H1         -1.6507   -1.7487    1.2073 H         1 <0>         0.0609
     34 H2         -0.1288   -1.8598    2.1237 H         1 <0>         0.0609
     35 H3         -1.1340   -0.3956    2.2418 H         1 <0>         0.0785
     36 H4          0.0381    0.3611    0.3870 H         1 <0>         0.3978
     37 H5          1.1588    0.1073   -1.6482 H         1 <0>         0.4144
     38 H6          2.6399   -0.0489   -3.5510 H         1 <0>         0.1389
     39 H7          3.7426   -1.5430   -5.1994 H         1 <0>         0.1401
     40 H8          2.0158   -4.8776   -3.1671 H         1 <0>         0.1594
     41 H9          2.9795   -5.1561   -5.3788 H         1 <0>         0.0799
     42 H10         3.7032   -3.7720   -6.2325 H         1 <0>         0.0783
     43 H11         5.2432   -4.2981   -3.9242 H         1 <0>         0.4274
     44 H12         5.8575   -7.3048   -8.2979 H         1 <0>         0.2301
     45 H13         9.3439   -6.6214   -4.3394 H         1 <0>         0.4147
     46 H14        11.5176   -5.7899   -3.3300 H         1 <0>         0.1511
     47 H15        12.6645   -5.3322   -1.2021 H         1 <0>         0.1509
     48 H16         7.7507   -5.7739   -1.3084 H         1 <0>         0.1566
@<TRIPOS>BOND
     1    1    2 1
     2    1   33 1
     3    1   34 1
     4    1   35 1
     5    2    3 am
     6    2   36 1
     7    3    4 2
     8    3    5 am
     9    5    6 1
    10    5   37 1
    11    6   11 ar
    12    6    7 ar
    13    7    8 ar
    14    7   38 1
    15    8    9 ar
    16    8   39 1
    17    9   10 ar
    18    9   12 1
    19   10   11 ar
    20   10   40 1
    21   12   13 1
    22   12   41 1
    23   12   42 1
    24   13   14 1
    25   13   43 1
    26   14   18 1
    27   14   15 2
    28   15   16 1
    29   15   19 1
    30   16   17 1
    31   17   18 2
    32   17   44 1
    33   19   20 2
    34   19   21 am
    35   21   22 1
    36   21   45 1
    37   22   27 ar
    38   22   23 ar
    39   23   24 ar
    40   23   46 1
    41   24   25 ar
    42   24   47 1
    43   25   30 1
    44   25   26 ar
    45   26   27 ar
    46   26   28 1
    47   27   48 1
    48   28   29 1
    49   29   30 1
    50   29   31 1
    51   29   32 1
@<TRIPOS>MOLECULE
CHEMBL568483
   57    60     0     0     0
SMALL
USER_CHARGES

@<TRIPOS>ATOM
      1 C1         -4.2970   -4.1463    3.1995 C.3       1 <0>        -0.1150
      2 C2         -3.2994   -3.7063    2.1592 C.ar      1 <0>        -0.1061
      3 C3         -3.3571   -4.2283    0.8817 C.ar      1 <0>        -0.0899
      4 C4         -2.4411   -3.8251   -0.0738 C.ar      1 <0>        -0.0507
      5 C5         -1.4649   -2.8980    0.2475 C.ar      1 <0>        -0.0940
      6 C6         -1.4029   -2.3726    1.5229 C.ar      1 <0>        -0.1014
      7 C7         -2.3248   -2.7714    2.4825 C.ar      1 <0>         0.1742
      8 N1         -2.2676   -2.2369    3.7738 N.pl3     1 <0>        -0.6364
      9 C8         -1.0461   -1.8849    4.3243 C.ar      1 <0>         0.5534
     10 N2          0.0659   -2.1621    3.6587 N.ar      1 <0>        -0.5555
     11 C9          1.2527   -1.8420    4.1509 C.ar      1 <0>         0.1875
     12 C10         1.3282   -1.2093    5.3779 C.ar      1 <0>        -0.2256
     13 C11         0.1386   -0.9295    6.0574 C.ar      1 <0>         0.2960
     14 N3         -1.0198   -1.2757    5.4992 N.ar      1 <0>        -0.5541
     15 C12         0.1662   -0.2530    7.3754 C.2       1 <0>        -0.1539
     16 C13         0.9353    0.8773    7.7195 C.2       1 <0>        -0.0645
     17 C14         0.6588    1.1683    9.0246 C.2       1 <0>        -0.0574
     18 N4         -0.2562    0.2485    9.4858 N.pl3     1 <0>        -0.5307
     19 H1         -0.6259    0.2234   10.3823 H         1 <0>         0.4204
     20 C15        -0.5594   -0.6075    8.4916 C.2       1 <0>         0.0850
     21 C16         1.2369    2.2709    9.8015 C.2       1 <0>         0.5932
     22 O1          2.0406    3.0239    9.2840 O.2       1 <0>        -0.5237
     23 N5          0.8778    2.4495   11.0882 N.am      1 <0>        -0.7195
     24 C17         1.4549    3.5502   11.8638 C.3       1 <0>         0.1937
     25 H2          1.6081    4.4116   11.2136 H         1 <0>         0.1152
     26 C18         2.7970    3.1106   12.4524 C.3       1 <0>         0.0672
     27 O2          2.5820    2.0570   13.3936 O.3       1 <0>        -0.5679
     28 C19         0.5150    3.9247   12.9806 C.ar      1 <0>        -0.0803
     29 C20        -0.1501    2.9378   13.6844 C.ar      1 <0>        -0.0878
     30 C21        -1.0124    3.2804   14.7089 C.ar      1 <0>        -0.1062
     31 C22        -1.2105    4.6102   15.0302 C.ar      1 <0>        -0.1058
     32 C23        -0.5453    5.5981   14.3265 C.ar      1 <0>        -0.0331
     33 C24         0.3224    5.2541   13.3049 C.ar      1 <0>        -0.0994
     34 Cl1        -0.7937    7.2683   14.7294 Cl        1 <0>        -0.0646
     35 C25         2.6615   -0.8305    5.9695 C.3       1 <0>        -0.0975
     36 Cl2        -2.5162   -4.4836   -1.6783 Cl        1 <0>        -0.0724
     37 H3         -5.1698   -3.4944    3.1646 H         1 <0>         0.0741
     38 H4         -4.6022   -5.1733    2.9987 H         1 <0>         0.0743
     39 H5         -3.8404   -4.0896    4.1877 H         1 <0>         0.0659
     40 H6         -4.1176   -4.9521    0.6284 H         1 <0>         0.1359
     41 H7         -0.7508   -2.5856   -0.5000 H         1 <0>         0.1351
     42 H8         -0.6407   -1.6496    1.7732 H         1 <0>         0.1454
     43 H9         -3.0833   -2.1126    4.2838 H         1 <0>         0.4237
     44 H10         2.1524   -2.0731    3.5998 H         1 <0>         0.1713
     45 H11         1.6150    1.4122    7.0728 H         1 <0>         0.1556
     46 H12        -1.2523   -1.4332    8.5585 H         1 <0>         0.1808
     47 H13         0.2372    1.8492   11.5007 H         1 <0>         0.3968
     48 H14         3.4461    2.7558   11.6519 H         1 <0>         0.0602
     49 H15         3.2679    3.9557   12.9544 H         1 <0>         0.0601
     50 H16         3.3917    1.7280   13.8074 H         1 <0>         0.3826
     51 H17         0.0038    1.8987   13.4332 H         1 <0>         0.1283
     52 H18        -1.5316    2.5091   15.2582 H         1 <0>         0.1343
     53 H19        -1.8848    4.8779   15.8302 H         1 <0>         0.1350
     54 H20         0.8454    6.0247   12.7581 H         1 <0>         0.1359
     55 H21         2.8835    0.2092    5.7290 H         1 <0>         0.0722
     56 H22         2.6268   -0.9536    7.0520 H         1 <0>         0.0725
     57 H23         3.4384   -1.4732    5.5554 H         1 <0>         0.0677
@<TRIPOS>BOND
     1    1    2 1
     2    1   37 1
     3    1   38 1
     4    1   39 1
     5    2    7 ar
     6    2    3 ar
     7    3    4 ar
     8    3   40 1
     9    4    5 ar
    10    4   36 1
    11    5    6 ar
    12    5   41 1
    13    6    7 ar
    14    6   42 1
    15    7    8 1
    16    8    9 1
    17    8   43 1
    18    9   14 ar
    19    9   10 ar
    20   10   11 ar
    21   11   12 ar
    22   11   44 1
    23   12   13 ar
    24   12   35 1
    25   13   14 ar
    26   13   15 1
    27   15   20 2
    28   15   16 1
    29   16   17 2
    30   16   45 1
    31   17   18 1
    32   17   21 1
    33   18   19 1
    34   18   20 1
    35   20   46 1
    36   21   22 2
    37   21   23 am
    38   23   24 1
    39   23   47 1
    40   24   25 1
    41   24   26 1
    42   24   28 1
    43   26   27 1
    44   26   48 1
    45   26   49 1
    46   27   50 1
    47   28   33 ar
    48   28   29 ar
    49   29   30 ar
    50   29   51 1
    51   30   31 ar
    52   30   52 1
    53   31   32 ar
    54   31   53 1
    55   32   33 ar
    56   32   34 1
    57   33   54 1
    58   35   55 1
    59   35   56 1
    60   35   57 1
@<TRIPOS>MOLECULE
CHEMBL373628
   47    50     0     0     0
SMALL
USER_CHARGES

@<TRIPOS>ATOM
      1 C1         -1.2034    2.3551   -0.6555 C.3       1 <0>        -0.1595
      2 C2         -0.9600    0.8582   -0.4534 C.3       1 <0>         0.1856
      3 H1         -1.9144    0.3317   -0.4532 H         1 <0>         0.1013
      4 C3         -0.2635    0.6359    0.8644 C.ar      1 <0>        -0.0941
      5 C4          1.0994    0.8419    0.9692 C.ar      1 <0>        -0.1181
      6 C5          1.7383    0.6381    2.1780 C.ar      1 <0>        -0.1152
      7 C6          1.0142    0.2287    3.2821 C.ar      1 <0>        -0.1172
      8 C7         -0.3488    0.0236    3.1775 C.ar      1 <0>        -0.1129
      9 C8         -0.9884    0.2316    1.9698 C.ar      1 <0>        -0.1059
     10 N1         -0.1213    0.3485   -1.5411 N.am      1 <0>        -0.7267
     11 C9         -0.6846   -0.0318   -2.7049 C.2       1 <0>         0.5907
     12 O1         -1.8899    0.0482   -2.8522 O.2       1 <0>        -0.5173
     13 C10         0.1554   -0.5423   -3.7943 C.2       1 <0>        -0.0524
     14 C11        -0.2856   -0.9540   -5.0196 C.2       1 <0>        -0.0569
     15 C12         0.8480   -1.3639   -5.7521 C.2       1 <0>        -0.1404
     16 C13         1.9461   -1.1846   -4.9378 C.2       1 <0>         0.0566
     17 N2          1.5244   -0.6831   -3.7595 N.pl3     1 <0>        -0.5291
     18 H2          2.0941   -0.4596   -3.0069 H         1 <0>         0.4203
     19 C14         0.8569   -1.8878   -7.1347 C.2       1 <0>         0.1876
     20 C15         0.0046   -2.8500   -7.6584 C.2       1 <0>        -0.1956
     21 C16         0.3680   -3.0425   -9.0036 C.2       1 <0>         0.0723
     22 N3          1.3712   -2.2529   -9.2795 N.2       1 <0>        -0.2880
     23 N4          1.6992   -1.5135   -8.1373 N.pl3     1 <0>        -0.4690
     24 H3          2.4049   -0.8513   -8.0708 H         1 <0>         0.4402
     25 C17        -1.0860   -3.5460   -6.9344 C.ar      1 <0>         0.0166
     26 C18        -0.8140   -4.2319   -5.7512 C.ar      1 <0>        -0.0974
     27 C19        -1.8325   -4.8777   -5.0808 C.ar      1 <0>        -0.1043
     28 C20        -3.1223   -4.8459   -5.5801 C.ar      1 <0>        -0.1136
     29 C21        -3.3988   -4.1672   -6.7544 C.ar      1 <0>        -0.0305
     30 C22        -2.3879   -3.5123   -7.4307 C.ar      1 <0>        -0.1023
     31 Cl1        -5.0199   -4.1332   -7.3746 Cl        1 <0>        -0.0717
     32 H4         -0.2490    2.8816   -0.6557 H         1 <0>         0.0587
     33 H5         -1.7072    2.5158   -1.6087 H         1 <0>         0.0679
     34 H6         -1.8274    2.7343    0.1537 H         1 <0>         0.0711
     35 H7          1.6651    1.1618    0.1066 H         1 <0>         0.1168
     36 H8          2.8032    0.7984    2.2597 H         1 <0>         0.1242
     37 H9          1.5135    0.0687    4.2263 H         1 <0>         0.1245
     38 H10        -0.9145   -0.2966    4.0400 H         1 <0>         0.1264
     39 H11        -2.0540    0.0749    1.8890 H         1 <0>         0.1266
     40 H12         0.8394    0.2848   -1.4236 H         1 <0>         0.3926
     41 H13        -1.3095   -0.9641   -5.3628 H         1 <0>         0.1540
     42 H14         2.9703   -1.4047   -5.2006 H         1 <0>         0.1790
     43 H15        -0.1032   -3.7279   -9.6924 H         1 <0>         0.1873
     44 H16         0.1925   -4.2579   -5.3603 H         1 <0>         0.1240
     45 H17        -1.6224   -5.4094   -4.1646 H         1 <0>         0.1296
     46 H18        -3.9163   -5.3528   -5.0519 H         1 <0>         0.1310
     47 H19        -2.6051   -2.9789   -8.3443 H         1 <0>         0.1331
@<TRIPOS>BOND
     1    1    2 1
     2    1   32 1
     3    1   33 1
     4    1   34 1
     5    2    3 1
     6    2    4 1
     7    2   10 1
     8    4    9 ar
     9    4    5 ar
    10    5    6 ar
    11    5   35 1
    12    6    7 ar
    13    6   36 1
    14    7    8 ar
    15    7   37 1
    16    8    9 ar
    17    8   38 1
    18    9   39 1
    19   10   11 am
    20   10   40 1
    21   11   12 2
    22   11   13 1
    23   13   17 1
    24   13   14 2
    25   14   15 1
    26   14   41 1
    27   15   16 2
    28   15   19 1
    29   16   17 1
    30   16   42 1
    31   17   18 1
    32   19   23 1
    33   19   20 2
    34   20   21 1
    35   20   25 1
    36   21   22 2
    37   21   43 1
    38   22   23 1
    39   23   24 1
    40   25   30 ar
    41   25   26 ar
    42   26   27 ar
    43   26   44 1
    44   27   28 ar
    45   27   45 1
    46   28   29 ar
    47   28   46 1
    48   29   30 ar
    49   29   31 1
    50   30   47 1
@<TRIPOS>MOLECULE
CHEMBL373628__1
   47    50     0     0     0
SMALL
USER_CHARGES

@<TRIPOS>ATOM
      1 C1         -0.0187    1.5258    0.0104 C.3       1 <0>        -0.1591
      2 C2          0.0021   -0.0041    0.0020 C.3       1 <0>         0.1854
      3 H1          0.5123   -0.3556   -0.8948 H         1 <0>         0.1006
      4 C3         -1.4117   -0.5257    0.0127 C.ar      1 <0>        -0.0938
      5 C4         -2.1228   -0.5709    1.1973 C.ar      1 <0>        -0.1175
      6 C5         -3.4197   -1.0494    1.2071 C.ar      1 <0>        -0.1151
      7 C6         -4.0056   -1.4822    0.0323 C.ar      1 <0>        -0.1177
      8 C7         -3.2949   -1.4361   -1.1525 C.ar      1 <0>        -0.1134
      9 C8         -1.9995   -0.9536   -1.1630 C.ar      1 <0>        -0.1063
     10 N1          0.7106   -0.4894    1.1889 N.am      1 <0>        -0.7272
     11 C9          2.0538   -0.5998    1.1737 C.2       1 <0>         0.5927
     12 O1          2.6780   -0.2964    0.1741 O.2       1 <0>        -0.5218
     13 C10         2.7634   -1.0858    2.3623 C.2       1 <0>        -0.0575
     14 C11         4.1160   -1.2401    2.4838 C.2       1 <0>        -0.0672
     15 C12         4.3613   -1.7272    3.7822 C.2       1 <0>        -0.1170
     16 C13         3.1531   -1.8531    4.4070 C.2       1 <0>         0.0706
     17 N2          2.1846   -1.4612    3.5537 N.pl3     1 <0>        -0.5335
     18 H2          1.2342   -1.4480    3.7474 H         1 <0>         0.4190
     19 C14         5.6888   -2.0456    4.3647 C.2       1 <0>         0.1758
     20 C15         6.0708   -1.8684    5.7180 C.2       1 <0>        -0.2033
     21 C16         7.3643   -2.2816    5.8357 C.2       1 <0>         0.0822
     22 N3          7.7770   -2.6976    4.6212 N.pl3     1 <0>        -0.4696
     23 N4          6.7176   -2.5475    3.7184 N.2       1 <0>        -0.2801
     24 H3          8.6578   -3.0447    4.4095 H         1 <0>         0.4446
     25 C17         5.2187   -1.3310    6.8072 C.ar      1 <0>         0.0155
     26 C18         4.5181   -0.1401    6.6240 C.ar      1 <0>        -0.1003
     27 C19         3.7264    0.3556    7.6398 C.ar      1 <0>        -0.1048
     28 C20         3.6274   -0.3267    8.8390 C.ar      1 <0>        -0.1158
     29 C21         4.3211   -1.5096    9.0272 C.ar      1 <0>        -0.0319
     30 C22         5.1116   -2.0178    8.0144 C.ar      1 <0>        -0.1070
     31 Cl1         4.1925   -2.3594   10.5355 Cl        1 <0>        -0.0707
     32 H4          1.0039    1.9031    0.0027 H         1 <0>         0.0679
     33 H5         -0.5459    1.8868   -0.8726 H         1 <0>         0.0703
     34 H6         -0.5289    1.8773    0.9072 H         1 <0>         0.0589
     35 H7         -1.6650   -0.2328    2.1152 H         1 <0>         0.1175
     36 H8         -3.9750   -1.0854    2.1327 H         1 <0>         0.1243
     37 H9         -5.0186   -1.8567    0.0401 H         1 <0>         0.1241
     38 H10        -3.7525   -1.7745   -2.0703 H         1 <0>         0.1259
     39 H11        -1.4455   -0.9141   -2.0892 H         1 <0>         0.1262
     40 H12         0.2131   -0.7312    1.9857 H         1 <0>         0.3931
     41 H13         4.8568   -1.0289    1.7268 H         1 <0>         0.1532
     42 H14         2.9992   -2.2038    5.4168 H         1 <0>         0.1757
     43 H15         7.9539   -2.2764    6.7406 H         1 <0>         0.1813
     44 H16         4.5949    0.3941    5.6885 H         1 <0>         0.1298
     45 H17         3.1833    1.2783    7.4984 H         1 <0>         0.1316
     46 H18         3.0069    0.0651    9.6314 H         1 <0>         0.1316
     47 H19         5.6492   -2.9431    8.1601 H         1 <0>         0.1326
@<TRIPOS>BOND
     1    1    2 1
     2    1   32 1
     3    1   33 1
     4    1   34 1
     5    2    3 1
     6    2    4 1
     7    2   10 1
     8    4    9 ar
     9    4    5 ar
    10    5    6 ar
    11    5   35 1
    12    6    7 ar
    13    6   36 1
    14    7    8 ar
    15    7   37 1
    16    8    9 ar
    17    8   38 1
    18    9   39 1
    19   10   11 am
    20   10   40 1
    21   11   12 2
    22   11   13 1
    23   13   17 1
    24   13   14 2
    25   14   15 1
    26   14   41 1
    27   15   16 2
    28   15   19 1
    29   16   17 1
    30   16   42 1
    31   17   18 1
    32   19   23 2
    33   19   20 1
    34   20   25 1
    35   20   21 2
    36   21   43 1
    37   21   22 1
    38   22   23 1
    39   22   24 1
    40   25   30 ar
    41   25   26 ar
    42   26   27 ar
    43   26   44 1
    44   27   28 ar
    45   27   45 1
    46   28   29 ar
    47   28   46 1
    48   29   30 ar
    49   29   31 1
    50   30   47 1
@<TRIPOS>MOLECULE
CHEMBL570367
   54    57     0     0     0
SMALL
USER_CHARGES

@<TRIPOS>ATOM
      1 C1         -0.3527    1.4878    0.0468 C.3       1 <0>        -0.1010
      2 C2         -0.2414   -0.0149    0.0286 C.ar      1 <0>        -0.2406
      3 C3         -0.4511   -0.7258   -1.1386 C.ar      1 <0>         0.1905
      4 N1         -0.3458   -2.0455   -1.1214 N.ar      1 <0>        -0.5572
      5 C4         -0.0433   -2.6914   -0.0044 C.ar      1 <0>         0.5593
      6 N2          0.1650   -2.0504    1.1349 N.ar      1 <0>        -0.5539
      7 C5          0.0821   -0.7225    1.1904 C.ar      1 <0>         0.2986
      8 C6          0.3223   -0.0063    2.4652 C.2       1 <0>        -0.1534
      9 C7         -0.0086   -0.4639    3.7569 C.2       1 <0>        -0.0523
     10 C8          0.3867    0.5015    4.6378 C.2       1 <0>        -0.0604
     11 N3          0.9486    1.5340    3.9208 N.pl3     1 <0>        -0.5291
     12 H1          1.3135    2.3490    4.2997 H         1 <0>         0.4210
     13 C9          0.9160    1.2284    2.6098 C.2       1 <0>         0.0706
     14 C10         0.2375    0.4484    6.0968 C.2       1 <0>         0.5921
     15 O1         -0.2785   -0.5212    6.6207 O.2       1 <0>        -0.5248
     16 N4          0.6720    1.4734    6.8564 N.am      1 <0>        -0.7189
     17 C11         0.5231    1.4203    8.3128 C.3       1 <0>         0.1925
     18 H2         -0.4051    0.9074    8.5647 H         1 <0>         0.1123
     19 C12         1.7055    0.6619    8.9191 C.3       1 <0>         0.0674
     20 O2          2.9102    1.3952    8.6887 O.3       1 <0>        -0.5671
     21 C13         0.4885    2.8218    8.8657 C.ar      1 <0>        -0.0926
     22 C14         1.3256    3.7910    8.3451 C.ar      1 <0>        -0.0921
     23 C15         1.2939    5.0766    8.8522 C.ar      1 <0>        -0.1207
     24 C16         0.4248    5.3931    9.8795 C.ar      1 <0>        -0.1156
     25 C17        -0.4129    4.4242   10.3995 C.ar      1 <0>        -0.1182
     26 C18        -0.3843    3.1397    9.8895 C.ar      1 <0>        -0.1085
     27 N5          0.0571   -4.0729   -0.0296 N.pl3     1 <0>        -0.6425
     28 C19        -0.0448   -4.7591   -1.2435 C.ar      1 <0>         0.1664
     29 C20         0.5392   -4.2358   -2.3900 C.ar      1 <0>        -0.1106
     30 C21         0.4371   -4.9165   -3.5873 C.ar      1 <0>        -0.1015
     31 C22        -0.2455   -6.1177   -3.6456 C.ar      1 <0>        -0.1370
     32 C23        -0.8284   -6.6412   -2.5061 C.ar      1 <0>        -0.1001
     33 C24        -0.7252   -5.9685   -1.3043 C.ar      1 <0>        -0.1467
     34 H3          0.6189    1.9269   -0.1800 H         1 <0>         0.0691
     35 H4         -1.0792    1.8074   -0.7003 H         1 <0>         0.0696
     36 H5         -0.6782    1.8161    1.0339 H         1 <0>         0.0732
     37 H6         -0.6985   -0.2100   -2.0547 H         1 <0>         0.1692
     38 H7         -0.4849   -1.4014    4.0033 H         1 <0>         0.1549
     39 H8          1.2901    1.8472    1.8076 H         1 <0>         0.1843
     40 H9          1.0833    2.2463    6.4388 H         1 <0>         0.3963
     41 H10         1.5508    0.5451    9.9917 H         1 <0>         0.0586
     42 H11         1.7838   -0.3208    8.4541 H         1 <0>         0.0577
     43 H12         3.7027    0.9723    9.0469 H         1 <0>         0.3811
     44 H13         2.0046    3.5437    7.5425 H         1 <0>         0.1204
     45 H14         1.9483    5.8336    8.4460 H         1 <0>         0.1230
     46 H15         0.4005    6.3973   10.2762 H         1 <0>         0.1229
     47 H16        -1.0917    4.6714   11.2023 H         1 <0>         0.1248
     48 H17        -1.0414    2.3836   10.2931 H         1 <0>         0.1243
     49 H18         0.1980   -4.5641    0.7949 H         1 <0>         0.4231
     50 H19         1.0721   -3.2976   -2.3452 H         1 <0>         0.1263
     51 H20         0.8906   -4.5100   -4.4792 H         1 <0>         0.1238
     52 H21        -0.3238   -6.6480   -4.5831 H         1 <0>         0.1222
     53 H22        -1.3614   -7.5793   -2.5551 H         1 <0>         0.1252
     54 H23        -1.1769   -6.3801   -0.4138 H         1 <0>         0.1238
@<TRIPOS>BOND
     1    1    2 1
     2    1   34 1
     3    1   35 1
     4    1   36 1
     5    2    7 ar
     6    2    3 ar
     7    3    4 ar
     8    3   37 1
     9    4    5 ar
    10    5    6 ar
    11    5   27 1
    12    6    7 ar
    13    7    8 1
    14    8   13 2
    15    8    9 1
    16    9   10 2
    17    9   38 1
    18   10   11 1
    19   10   14 1
    20   11   12 1
    21   11   13 1
    22   13   39 1
    23   14   15 2
    24   14   16 am
    25   16   17 1
    26   16   40 1
    27   17   18 1
    28   17   19 1
    29   17   21 1
    30   19   20 1
    31   19   41 1
    32   19   42 1
    33   20   43 1
    34   21   26 ar
    35   21   22 ar
    36   22   23 ar
    37   22   44 1
    38   23   24 ar
    39   23   45 1
    40   24   25 ar
    41   24   46 1
    42   25   26 ar
    43   25   47 1
    44   26   48 1
    45   27   28 1
    46   27   49 1
    47   28   33 ar
    48   28   29 ar
    49   29   30 ar
    50   29   50 1
    51   30   31 ar
    52   30   51 1
    53   31   32 ar
    54   31   52 1
    55   32   33 ar
    56   32   53 1
    57   33   54 1
@<TRIPOS>MOLECULE
CHEMBL570366
   55    58     0     0     0
SMALL
USER_CHARGES

@<TRIPOS>ATOM
      1 C1          0.2712    1.4993   -0.0120 C.3       1 <0>        -0.1013
      2 C2          0.2138   -0.0066   -0.0143 C.ar      1 <0>        -0.2395
      3 C3         -0.0109   -0.7042   -1.1867 C.ar      1 <0>         0.1894
      4 N1         -0.0557   -2.0271   -1.1552 N.ar      1 <0>        -0.5586
      5 C4          0.1113   -2.6887   -0.0189 C.ar      1 <0>         0.5571
      6 N2          0.3283   -2.0606    1.1260 N.ar      1 <0>        -0.5518
      7 C5          0.3922   -0.7312    1.1682 C.ar      1 <0>         0.2997
      8 C6          0.6423   -0.0303    2.4496 C.2       1 <0>        -0.1543
      9 C7          0.1927   -0.4314    3.7241 C.2       1 <0>        -0.0521
     10 C8          0.6453    0.4953    4.6189 C.2       1 <0>        -0.0601
     11 N3          1.3575    1.4492    3.9272 N.pl3     1 <0>        -0.5288
     12 H1          1.7899    2.2235    4.3201 H         1 <0>         0.4211
     13 C9          1.3627    1.1319    2.6186 C.2       1 <0>         0.0709
     14 C10         0.4122    0.4779    6.0677 C.2       1 <0>         0.5920
     15 O1         -0.2369   -0.4212    6.5688 O.2       1 <0>        -0.5245
     16 N4          0.9170    1.4578    6.8433 N.am      1 <0>        -0.7188
     17 C11         0.6843    1.4405    8.2896 C.3       1 <0>         0.1925
     18 H2          0.6785    0.4098    8.6443 H         1 <0>         0.1123
     19 C12        -0.6649    2.0932    8.5969 C.3       1 <0>         0.0676
     20 O2         -0.6179    3.4757    8.2381 O.3       1 <0>        -0.5670
     21 C13         1.7819    2.2046    8.9842 C.ar      1 <0>        -0.0931
     22 C14         2.2590    3.3805    8.4361 C.ar      1 <0>        -0.0918
     23 C15         3.2658    4.0815    9.0732 C.ar      1 <0>        -0.1209
     24 C16         3.7952    3.6067   10.2586 C.ar      1 <0>        -0.1155
     25 C17         3.3174    2.4312   10.8072 C.ar      1 <0>        -0.1183
     26 C18         2.3077    1.7325   10.1723 C.ar      1 <0>        -0.1082
     27 N5          0.0571   -4.0725   -0.0296 N.pl3     1 <0>        -0.6332
     28 C19        -0.0449   -4.7600   -1.2456 C.ar      1 <0>         0.1473
     29 C20         0.5332   -4.2348   -2.3921 C.ar      1 <0>        -0.1059
     30 C21         0.4312   -4.9150   -3.5909 C.ar      1 <0>        -0.1063
     31 C22        -0.2463   -6.1189   -3.6511 C.ar      1 <0>        -0.1250
     32 C23        -0.8255   -6.6482   -2.5126 C.ar      1 <0>        -0.1229
     33 C24        -0.7224   -5.9758   -1.3059 C.ar      1 <0>         0.0700
     34 O3         -1.2864   -6.4982   -0.1841 O.3       1 <0>        -0.4954
     35 H3          1.2968    1.8240   -0.1875 H         1 <0>         0.0695
     36 H4         -0.3731    1.8887   -0.8002 H         1 <0>         0.0698
     37 H5         -0.0684    1.8744    0.9535 H         1 <0>         0.0734
     38 H6         -0.1487   -0.1756   -2.1184 H         1 <0>         0.1702
     39 H7         -0.3988   -1.3063    3.9500 H         1 <0>         0.1550
     40 H8          1.8472    1.6944    1.8342 H         1 <0>         0.1844
     41 H9          1.4344    2.1745    6.4438 H         1 <0>         0.3963
     42 H10        -1.4480    1.5958    8.0247 H         1 <0>         0.0577
     43 H11        -0.8788    2.0013    9.6618 H         1 <0>         0.0587
     44 H12        -1.4415    3.9538    8.4060 H         1 <0>         0.3810
     45 H13         1.8454    3.7515    7.5099 H         1 <0>         0.1207
     46 H14         3.6391    4.9998    8.6447 H         1 <0>         0.1230
     47 H15         4.5823    4.1539   10.7560 H         1 <0>         0.1229
     48 H16         3.7312    2.0601   11.7332 H         1 <0>         0.1248
     49 H17         1.9318    0.8161   10.6028 H         1 <0>         0.1243
     50 H18         0.0897   -4.5656    0.8051 H         1 <0>         0.4275
     51 H19         1.0627   -3.2945   -2.3480 H         1 <0>         0.1404
     52 H20         0.8814   -4.5051   -4.4829 H         1 <0>         0.1274
     53 H21        -0.3235   -6.6470   -4.5900 H         1 <0>         0.1271
     54 H22        -1.3545   -7.5884   -2.5632 H         1 <0>         0.1315
     55 H23        -2.2014   -6.2215   -0.0384 H         1 <0>         0.3879
@<TRIPOS>BOND
     1    1    2 1
     2    1   35 1
     3    1   36 1
     4    1   37 1
     5    2    7 ar
     6    2    3 ar
     7    3    4 ar
     8    3   38 1
     9    4    5 ar
    10    5    6 ar
    11    5   27 1
    12    6    7 ar
    13    7    8 1
    14    8   13 2
    15    8    9 1
    16    9   10 2
    17    9   39 1
    18   10   11 1
    19   10   14 1
    20   11   12 1
    21   11   13 1
    22   13   40 1
    23   14   15 2
    24   14   16 am
    25   16   17 1
    26   16   41 1
    27   17   18 1
    28   17   19 1
    29   17   21 1
    30   19   20 1
    31   19   42 1
    32   19   43 1
    33   20   44 1
    34   21   26 ar
    35   21   22 ar
    36   22   23 ar
    37   22   45 1
    38   23   24 ar
    39   23   46 1
    40   24   25 ar
    41   24   47 1
    42   25   26 ar
    43   25   48 1
    44   26   49 1
    45   27   28 1
    46   27   50 1
    47   28   33 ar
    48   28   29 ar
    49   29   30 ar
    50   29   51 1
    51   30   31 ar
    52   30   52 1
    53   31   32 ar
    54   31   53 1
    55   32   33 ar
    56   32   54 1
    57   33   34 1
    58   34   55 1
@<TRIPOS>MOLECULE
CHEMBL570111
   64    68     0     0     0
SMALL
USER_CHARGES

@<TRIPOS>ATOM
      1 C1          0.0799    1.5033    0.0018 C.3       1 <0>        -0.1009
      2 C2          0.0742   -0.0037   -0.0042 C.ar      1 <0>        -0.2405
      3 C3         -0.1463   -0.7056   -1.1749 C.ar      1 <0>         0.1896
      4 N1         -0.1450   -2.0294   -1.1466 N.ar      1 <0>        -0.5553
      5 C4          0.0639   -2.6876   -0.0155 C.ar      1 <0>         0.5589
      6 N2          0.2786   -2.0554    1.1275 N.ar      1 <0>        -0.5536
      7 C5          0.2975   -0.7247    1.1728 C.ar      1 <0>         0.2983
      8 C6          0.5447   -0.0189    2.4520 C.2       1 <0>        -0.1529
      9 C7          0.1308   -0.4387    3.7326 C.2       1 <0>        -0.0513
     10 C8          0.5668    0.5003    4.6228 C.2       1 <0>        -0.0612
     11 N3          1.2342    1.4800    3.9223 N.pl3     1 <0>        -0.5292
     12 H1          1.6470    2.2672    4.3106 H         1 <0>         0.4208
     13 C9          1.2272    1.1671    2.6127 C.2       1 <0>         0.0712
     14 C10         0.3591    0.4709    6.0753 C.2       1 <0>         0.5933
     15 O1         -0.2503   -0.4512    6.5842 O.2       1 <0>        -0.5230
     16 N4          0.8434    1.4653    6.8455 N.am      1 <0>        -0.7198
     17 C11         0.6361    1.4359    8.2954 C.3       1 <0>         0.1936
     18 H2          0.6714    0.4047    8.6467 H         1 <0>         0.1151
     19 C12        -0.7291    2.0414    8.6278 C.3       1 <0>         0.0671
     20 O2         -0.7355    3.4256    8.2730 O.3       1 <0>        -0.5678
     21 C13         1.7187    2.2351    8.9739 C.ar      1 <0>        -0.0799
     22 C14         2.1460    3.4285    8.4216 C.ar      1 <0>        -0.0878
     23 C15         3.1389    4.1620    9.0433 C.ar      1 <0>        -0.1063
     24 C16         3.7055    3.7027   10.2176 C.ar      1 <0>        -0.1060
     25 C17         3.2784    2.5089   10.7706 C.ar      1 <0>        -0.0331
     26 C18         2.2801    1.7779   10.1510 C.ar      1 <0>        -0.0995
     27 Cl1         3.9896    1.9314   12.2452 Cl        1 <0>        -0.0648
     28 N5          0.0571   -4.0729   -0.0296 N.pl3     1 <0>        -0.6372
     29 C19        -0.0448   -4.7591   -1.2435 C.ar      1 <0>         0.1670
     30 C20         0.5353   -4.2289   -2.3857 C.ar      1 <0>        -0.1174
     31 C21         0.4323   -4.9081   -3.5835 C.ar      1 <0>        -0.1010
     32 C22        -0.2489   -6.1073   -3.6370 C.ar      1 <0>        -0.1400
     33 C23        -0.8333   -6.6426   -2.4958 C.ar      1 <0>        -0.0570
     34 C24        -0.7246   -5.9763   -1.2971 C.ar      1 <0>        -0.1040
     35 C25        -1.3136   -6.5081   -0.0169 C.3       1 <0>        -0.0815
     36 C26        -2.3603   -7.5806   -0.3117 C.3       1 <0>        -0.1177
     37 C27        -1.7415   -8.6122   -1.2623 C.3       1 <0>        -0.1203
     38 C28        -1.5673   -7.9510   -2.6322 C.3       1 <0>        -0.0800
     39 H3          1.0906    1.8636   -0.1901 H         1 <0>         0.0691
     40 H4         -0.5908    1.8723   -0.7741 H         1 <0>         0.0695
     41 H5         -0.2560    1.8640    0.9740 H         1 <0>         0.0730
     42 H6         -0.3180   -0.1797   -2.1024 H         1 <0>         0.1692
     43 H7         -0.4261   -1.3342    3.9655 H         1 <0>         0.1549
     44 H8          1.6783    1.7483    1.8220 H         1 <0>         0.1844
     45 H9          1.3291    2.2003    6.4398 H         1 <0>         0.3965
     46 H10        -1.5044    1.5191    8.0673 H         1 <0>         0.0600
     47 H11        -0.9216    1.9392    9.6958 H         1 <0>         0.0600
     48 H12        -1.5719    3.8748    8.4564 H         1 <0>         0.3825
     49 H13         1.7040    3.7874    7.5039 H         1 <0>         0.1284
     50 H14         3.4722    5.0941    8.6114 H         1 <0>         0.1343
     51 H15         4.4818    4.2756   10.7029 H         1 <0>         0.1349
     52 H16         1.9431    0.8480   10.5846 H         1 <0>         0.1358
     53 H17         0.1229   -4.5667    0.8027 H         1 <0>         0.4219
     54 H18         1.0649   -3.2888   -2.3388 H         1 <0>         0.1323
     55 H19         0.8835   -4.5017   -4.4767 H         1 <0>         0.1232
     56 H20        -0.3287   -6.6350   -4.5759 H         1 <0>         0.1199
     57 H21        -0.5192   -6.9391    0.5924 H         1 <0>         0.0735
     58 H22        -1.7817   -5.6899    0.5304 H         1 <0>         0.0708
     59 H23        -2.6573   -8.0686    0.6166 H         1 <0>         0.0678
     60 H24        -3.2312   -7.1241   -0.7819 H         1 <0>         0.0658
     61 H25        -0.7745   -8.9340   -0.8756 H         1 <0>         0.0666
     62 H26        -2.4054   -9.4718   -1.3537 H         1 <0>         0.0679
     63 H27        -2.5428   -7.7705   -3.0839 H         1 <0>         0.0773
     64 H28        -0.9933   -8.6201   -3.2733 H         1 <0>         0.0744
@<TRIPOS>BOND
     1    1    2 1
     2    1   39 1
     3    1   40 1
     4    1   41 1
     5    2    7 ar
     6    2    3 ar
     7    3    4 ar
     8    3   42 1
     9    4    5 ar
    10    5    6 ar
    11    5   28 1
    12    6    7 ar
    13    7    8 1
    14    8   13 2
    15    8    9 1
    16    9   10 2
    17    9   43 1
    18   10   11 1
    19   10   14 1
    20   11   12 1
    21   11   13 1
    22   13   44 1
    23   14   15 2
    24   14   16 am
    25   16   17 1
    26   16   45 1
    27   17   18 1
    28   17   19 1
    29   17   21 1
    30   19   20 1
    31   19   46 1
    32   19   47 1
    33   20   48 1
    34   21   26 ar
    35   21   22 ar
    36   22   23 ar
    37   22   49 1
    38   23   24 ar
    39   23   50 1
    40   24   25 ar
    41   24   51 1
    42   25   26 ar
    43   25   27 1
    44   26   52 1
    45   28   29 1
    46   28   53 1
    47   29   34 ar
    48   29   30 ar
    49   30   31 ar
    50   30   54 1
    51   31   32 ar
    52   31   55 1
    53   32   33 ar
    54   32   56 1
    55   33   38 1
    56   33   34 ar
    57   34   35 1
    58   35   36 1
    59   35   57 1
    60   35   58 1
    61   36   37 1
    62   36   59 1
    63   36   60 1
    64   37   38 1
    65   37   61 1
    66   37   62 1
    67   38   63 1
    68   38   64 1
@<TRIPOS>MOLECULE
CHEMBL247797
   53    55     0     0     0
SMALL
USER_CHARGES

@<TRIPOS>ATOM
      1 C1          2.0385   -1.2772   -0.6519 C.3       1 <0>         0.1054
      2 N1          0.6767   -0.8151   -0.3723 N.am      1 <0>        -0.7469
      3 C2         -0.3435   -1.6956   -0.3554 C.2       1 <0>         0.6904
      4 O1         -0.1337   -2.8734   -0.5721 O.2       1 <0>        -0.5223
      5 N2         -1.5963   -1.2705   -0.0982 N.am      1 <0>        -0.6700
      6 C3         -2.6657   -2.1605   -0.1841 C.ar      1 <0>         0.3922
      7 C4         -3.9655   -1.6929   -0.0252 C.ar      1 <0>        -0.2106
      8 C5         -5.0177   -2.5870   -0.1129 C.ar      1 <0>        -0.0201
      9 C6         -4.7325   -3.9236   -0.3575 C.ar      1 <0>        -0.2056
     10 C7         -3.4177   -4.3183   -0.5049 C.ar      1 <0>         0.1628
     11 N3         -2.4349   -3.4419   -0.4215 N.ar      1 <0>        -0.4728
     12 C8         -5.8465   -4.9333   -0.4605 C.3       1 <0>         0.1601
     13 N4         -6.2911   -5.0296   -1.8530 N.pl3     1 <0>        -0.6997
     14 C9         -7.3840   -5.8080   -2.1763 C.2       1 <0>         0.4451
     15 C10        -7.8631   -6.0706   -3.4578 C.2       1 <0>        -0.3779
     16 C11        -8.9935   -6.9089   -3.3122 C.2       1 <0>         0.1134
     17 N5         -9.1752   -7.1296   -2.0410 N.2       1 <0>        -0.2958
     18 N6         -8.1856   -6.4622   -1.3114 N.pl3     1 <0>        -0.3953
     19 C12        -8.0453   -6.4704    0.1469 C.3       1 <0>         0.0850
     20 C13        -7.3022   -5.5720   -4.7191 C.2       1 <0>         0.6082
     21 O2         -6.3206   -4.8528   -4.7063 O.2       1 <0>        -0.5445
     22 N7         -7.8744   -5.9105   -5.8915 N.am      1 <0>        -0.6709
     23 C14        -7.2964   -5.4958   -7.0986 C.ar      1 <0>         0.1699
     24 C15        -8.1007   -5.2383   -8.2010 C.ar      1 <0>        -0.1311
     25 C16        -7.5316   -4.8302   -9.3906 C.ar      1 <0>        -0.0594
     26 C17        -6.1539   -4.6767   -9.4848 C.ar      1 <0>        -0.1273
     27 C18        -5.3495   -4.9341   -8.3815 C.ar      1 <0>        -0.0986
     28 C19        -5.9199   -5.3371   -7.1907 C.ar      1 <0>        -0.1009
     29 S1         -5.4269   -4.1564  -11.0032 S.3       1 <0>        -0.0273
     30 C20        -3.6498   -4.1025  -10.6431 C.3       1 <0>         0.4519
     31 F1         -3.2132   -5.3747  -10.2583 F         1 <0>        -0.1630
     32 F2         -2.9543   -3.6970  -11.7873 F         1 <0>        -0.1456
     33 F3         -3.4115   -3.1942   -9.6061 F         1 <0>        -0.1628
     34 H1          2.7230   -0.4294   -0.6229 H         1 <0>         0.0789
     35 H2          2.3351   -2.0094    0.0991 H         1 <0>         0.0611
     36 H3          2.0707   -1.7365   -1.6398 H         1 <0>         0.0612
     37 H4          0.5093    0.1246   -0.1994 H         1 <0>         0.3981
     38 H5         -1.7539   -0.3452    0.1467 H         1 <0>         0.4150
     39 H6         -4.1513   -0.6460    0.1644 H         1 <0>         0.1400
     40 H7         -6.0377   -2.2528    0.0066 H         1 <0>         0.1402
     41 H8         -3.1911   -5.3570   -0.6949 H         1 <0>         0.1601
     42 H9         -5.4871   -5.9063   -0.1257 H         1 <0>         0.0781
     43 H10        -6.6810   -4.6189    0.1664 H         1 <0>         0.0799
     44 H11        -5.8174   -4.5462   -2.5479 H         1 <0>         0.4326
     45 H12        -9.6010   -7.2982   -4.1158 H         1 <0>         0.1889
     46 H13        -8.5199   -5.5815    0.5625 H         1 <0>         0.0761
     47 H14        -8.5241   -7.3614    0.5529 H         1 <0>         0.0976
     48 H15        -6.9876   -6.4742    0.4101 H         1 <0>         0.0929
     49 H16        -8.6863   -6.4411   -5.8996 H         1 <0>         0.4124
     50 H17        -9.1716   -5.3576   -8.1277 H         1 <0>         0.1389
     51 H18        -8.1571   -4.6306  -10.2481 H         1 <0>         0.1378
     52 H19        -4.2785   -4.8153   -8.4544 H         1 <0>         0.1258
     53 H20        -5.2951   -5.5329   -6.3318 H         1 <0>         0.1486
@<TRIPOS>BOND
     1    1    2 1
     2    1   34 1
     3    1   35 1
     4    1   36 1
     5    2    3 am
     6    2   37 1
     7    3    4 2
     8    3    5 am
     9    5    6 1
    10    5   38 1
    11    6   11 ar
    12    6    7 ar
    13    7    8 ar
    14    7   39 1
    15    8    9 ar
    16    8   40 1
    17    9   10 ar
    18    9   12 1
    19   10   11 ar
    20   10   41 1
    21   12   13 1
    22   12   42 1
    23   12   43 1
    24   13   14 1
    25   13   44 1
    26   14   18 1
    27   14   15 2
    28   15   16 1
    29   15   20 1
    30   16   17 2
    31   16   45 1
    32   17   18 1
    33   18   19 1
    34   19   46 1
    35   19   47 1
    36   19   48 1
    37   20   21 2
    38   20   22 am
    39   22   23 1
    40   22   49 1
    41   23   28 ar
    42   23   24 ar
    43   24   25 ar
    44   24   50 1
    45   25   26 ar
    46   25   51 1
    47   26   27 ar
    48   26   29 1
    49   27   28 ar
    50   27   52 1
    51   28   53 1
    52   29   30 1
    53   30   31 1
    54   30   32 1
    55   30   33 1
@<TRIPOS>MOLECULE
CHEMBL247797__1
   54    56     0     0     0
SMALL
USER_CHARGES

@<TRIPOS>ATOM
      1 C1         -0.4296   -1.3254    2.0665 C.3       1 <0>         0.1035
      2 N1          0.0018   -0.8302    0.7569 N.am      1 <0>        -0.7431
      3 C2          0.5107   -1.6849   -0.1525 C.2       1 <0>         0.6904
      4 O1          0.6118   -2.8668    0.1140 O.2       1 <0>        -0.5217
      5 N2          0.9075   -1.2294   -1.3573 N.am      1 <0>        -0.6687
      6 C3          1.5301   -2.0920   -2.2580 C.ar      1 <0>         0.4102
      7 C4          2.0348   -1.5925   -3.4535 C.ar      1 <0>        -0.2112
      8 C5          2.6504   -2.4596   -4.3385 C.ar      1 <0>        -0.0138
      9 C6          2.7405   -3.8021   -3.9960 C.ar      1 <0>        -0.2337
     10 C7          2.2172   -4.2291   -2.7919 C.ar      1 <0>         0.1728
     11 N3          1.6403   -3.3779   -1.9651 N.ar      1 <0>        -0.4720
     12 C8          3.4021   -4.7831   -4.9293 C.3       1 <0>         0.1432
     13 N4          4.8318   -4.8634   -4.6198 N.pl3     1 <0>        -0.6460
     14 C9          5.6700   -5.6131   -5.4200 C.2       1 <0>         0.5240
     15 C10         7.0233   -5.8592   -5.1993 C.2       1 <0>        -0.3233
     16 C11         7.4752   -6.6693   -6.2677 C.2       1 <0>         0.2544
     17 N5          6.4685   -6.8898   -7.0649 N.pl3     1 <0>        -0.3806
     18 N6          5.3317   -6.2500   -6.5595 N.pl3     1 <0>        -0.3657
     19 C12         3.9989   -6.2668   -7.1673 C.3       1 <0>         0.0528
     20 C13         7.8276   -5.3703   -4.0732 C.2       1 <0>         0.6011
     21 O2          7.3148   -4.6760   -3.2153 O.2       1 <0>        -0.5123
     22 N7          9.1342   -5.6903   -3.9892 N.am      1 <0>        -0.6576
     23 C14         9.8843   -5.2861   -2.8770 C.ar      1 <0>         0.1440
     24 C15        11.2369   -5.0045   -3.0171 C.ar      1 <0>        -0.1178
     25 C16        11.9764   -4.6067   -1.9214 C.ar      1 <0>        -0.0609
     26 C17        11.3671   -4.4876   -0.6784 C.ar      1 <0>        -0.1117
     27 C18        10.0137   -4.7689   -0.5387 C.ar      1 <0>        -0.1010
     28 C19         9.2737   -5.1617   -1.6359 C.ar      1 <0>        -0.0940
     29 S1         12.3107   -3.9804    0.7206 S.3       1 <0>        -0.0138
     30 C20        11.1100   -3.9724    2.0803 C.3       1 <0>         0.4510
     31 F1         10.5784   -5.2565    2.2405 F         1 <0>        -0.1625
     32 F2         11.7470   -3.5805    3.2626 F         1 <0>        -0.1407
     33 F3         10.0786   -3.0740    1.7864 F         1 <0>        -0.1626
     34 H1         -1.2168   -2.0674    1.9331 H         1 <0>         0.0630
     35 H2          0.4171   -1.7820    2.5791 H         1 <0>         0.0627
     36 H3         -0.8099   -0.4951    2.6616 H         1 <0>         0.0821
     37 H4         -0.0789    0.1127    0.5443 H         1 <0>         0.4000
     38 H5          0.7598   -0.3013   -1.5976 H         1 <0>         0.4182
     39 H6          1.9471   -0.5420   -3.6882 H         1 <0>         0.1453
     40 H7          3.0515   -2.1004   -5.2747 H         1 <0>         0.1415
     41 H8          2.2846   -5.2725   -2.5214 H         1 <0>         0.1611
     42 H9          2.9477   -5.7661   -4.8049 H         1 <0>         0.0977
     43 H10         3.2713   -4.4501   -5.9589 H         1 <0>         0.0961
     44 H11         5.1893   -4.3897   -3.8526 H         1 <0>         0.4518
     45 H12         8.4808   -7.0405   -6.3997 H         1 <0>         0.2411
     46 H13         3.8623   -5.3677   -7.7683 H         1 <0>         0.1087
     47 H14         3.9003   -7.1470   -7.8026 H         1 <0>         0.1181
     48 H15         3.2424   -6.2981   -6.3832 H         1 <0>         0.1279
     49 H16         9.5552   -6.2004   -4.6988 H         1 <0>         0.4121
     50 H17        11.7105   -5.0972   -3.9833 H         1 <0>         0.1413
     51 H18        13.0285   -4.3885   -2.0303 H         1 <0>         0.1434
     52 H19         9.5398   -4.6768    0.4274 H         1 <0>         0.1305
     53 H20         8.2207   -5.3761   -1.5283 H         1 <0>         0.1474
     54 H21         6.5013   -7.4171   -7.8783 H         1 <0>         0.4769
@<TRIPOS>BOND
     1    1    2 1
     2    1   34 1
     3    1   35 1
     4    1   36 1
     5    2    3 am
     6    2   37 1
     7    3    4 2
     8    3    5 am
     9    5    6 1
    10    5   38 1
    11    6   11 ar
    12    6    7 ar
    13    7    8 ar
    14    7   39 1
    15    8    9 ar
    16    8   40 1
    17    9   10 ar
    18    9   12 1
    19   10   11 ar
    20   10   41 1
    21   12   13 1
    22   12   42 1
    23   12   43 1
    24   13   14 1
    25   13   44 1
    26   14   18 1
    27   14   15 2
    28   15   16 1
    29   15   20 1
    30   16   17 2
    31   16   45 1
    32   17   18 1
    33   17   54 1
    34   18   19 1
    35   19   46 1
    36   19   47 1
    37   19   48 1
    38   20   21 2
    39   20   22 am
    40   22   23 1
    41   22   49 1
    42   23   28 ar
    43   23   24 ar
    44   24   25 ar
    45   24   50 1
    46   25   26 ar
    47   25   51 1
    48   26   27 ar
    49   26   29 1
    50   27   28 ar
    51   27   52 1
    52   28   53 1
    53   29   30 1
    54   30   31 1
    55   30   32 1
    56   30   33 1
@<TRIPOS>MOLECULE
CHEMBL99203
   33    35     0     0     0
SMALL
USER_CHARGES

@<TRIPOS>ATOM
      1 C1         -0.0165    1.3674    0.0096 C.2       1 <0>         0.1084
      2 C2          1.2412    1.8393    0.0001 C.2       1 <0>        -0.1558
      3 C3          2.1284    0.6775   -0.0146 C.ar      1 <0>        -0.2430
      4 C4          3.5189    0.4885   -0.0293 C.ar      1 <0>         0.4947
      5 N1          3.9863   -0.7562   -0.0408 N.ar      1 <0>        -0.5946
      6 C5          3.1659   -1.7917   -0.0386 C.ar      1 <0>         0.3676
      7 N2          1.8572   -1.6618   -0.0250 N.ar      1 <0>        -0.5549
      8 C6          1.2933   -0.4548   -0.0127 C.ar      1 <0>         0.3664
      9 N3          0.0021   -0.0041    0.0020 N.pl3     1 <0>        -0.4527
     10 C7         -1.1866   -0.8604    0.0095 C.3       1 <0>         0.3095
     11 H1         -1.0147   -1.7522   -0.5931 H         1 <0>         0.1243
     12 C8         -1.5576   -1.2527    1.4569 C.3       1 <0>         0.0789
     13 H2         -1.1698   -0.5184    2.1629 H         1 <0>         0.0852
     14 C9         -3.1027   -1.2464    1.4632 C.3       1 <0>         0.0470
     15 H3         -3.4788   -0.5091    2.1724 H         1 <0>         0.0862
     16 C10        -3.4824   -0.8511    0.0189 C.3       1 <0>         0.0500
     17 H4         -3.6645   -1.7415   -0.5828 H         1 <0>         0.1001
     18 O1         -2.3330   -0.1335   -0.4838 O.3       1 <0>        -0.3472
     19 C11        -4.7181    0.0510    0.0210 C.3       1 <0>         0.0821
     20 O2         -5.1213    0.3097   -1.3254 O.3       1 <0>        -0.5632
     21 O3         -3.6074   -2.5456    1.7787 O.3       1 <0>        -0.5385
     22 O4         -1.0582   -2.5553    1.7662 O.3       1 <0>        -0.5244
     23 N4          4.3814    1.5699   -0.0322 N.pl3     1 <0>        -0.8269
     24 I1          1.8198    3.8528    0.0048 I         1 <0>        -0.0010
     25 H5         -0.9083    1.9764    0.0255 H         1 <0>         0.1861
     26 H6          3.5874   -2.7861   -0.0486 H         1 <0>         0.2042
     27 H7         -5.5292   -0.4451    0.5541 H         1 <0>         0.0670
     28 H8         -4.4800    0.9923    0.5162 H         1 <0>         0.0602
     29 H9         -5.9009    0.8768   -1.4004 H         1 <0>         0.3866
     30 H10        -4.5727   -2.5989    1.7964 H         1 <0>         0.3871
     31 H11        -1.2628   -2.8521    2.6635 H         1 <0>         0.3901
     32 H12         4.0271    2.4728   -0.0240 H         1 <0>         0.4094
     33 H13         5.3405    1.4252   -0.0424 H         1 <0>         0.4110
@<TRIPOS>BOND
     1    1    9 1
     2    1    2 2
     3    1   25 1
     4    2    3 1
     5    2   24 1
     6    3    8 ar
     7    3    4 ar
     8    4    5 ar
     9    4   23 1
    10    5    6 ar
    11    6    7 ar
    12    6   26 1
    13    7    8 ar
    14    8    9 1
    15    9   10 1
    16   10   11 1
    17   10   18 1
    18   10   12 1
    19   12   13 1
    20   12   14 1
    21   12   22 1
    22   14   15 1
    23   14   16 1
    24   14   21 1
    25   16   17 1
    26   16   18 1
    27   16   19 1
    28   19   20 1
    29   19   27 1
    30   19   28 1
    31   20   29 1
    32   21   30 1
    33   22   31 1
    34   23   32 1
    35   23   33 1
@<TRIPOS>MOLECULE
CHEMBL440356
   20    21     0     0     0
SMALL
USER_CHARGES

@<TRIPOS>ATOM
      1 C1         -0.0163    1.3532    0.0095 C.2       1 <0>        -0.0974
      2 C2          1.3149    1.7871   -0.0009 C.2       1 <0>        -0.1950
      3 C3          2.1132    0.6351   -0.0540 C.2       1 <0>         0.0127
      4 N1          1.2937   -0.4372   -0.0182 N.pl3     1 <0>        -0.4785
      5 H1          1.5780   -1.3646   -0.0088 H         1 <0>         0.4321
      6 C4          0.0021   -0.0041    0.0020 C.2       1 <0>         0.0135
      7 Br1        -1.5253   -1.1188    0.0179 Br        1 <0>         0.0270
      8 C5          3.5791    0.7339   -0.1876 C.2       1 <0>         0.5955
      9 O1          4.1937    0.0111   -0.9487 O.2       1 <0>        -0.5104
     10 N2          4.2163    1.6630    0.5711 N.am      1 <0>        -0.7200
     11 C6          3.5481    2.2825    1.7054 C.3       1 <0>         0.1136
     12 C7          2.6829    3.4846    1.3154 C.3       1 <0>        -0.1822
     13 C8          1.8820    3.1413    0.0742 C.2       1 <0>         0.4302
     14 O2          1.7169    3.9477   -0.8163 O.2       1 <0>        -0.4312
     15 H2         -0.8945    1.9816    0.0252 H         1 <0>         0.1640
     16 H3          5.1273    1.9160    0.3545 H         1 <0>         0.4147
     17 H4          2.9152    1.5378    2.1881 H         1 <0>         0.0845
     18 H5          4.3032    2.6118    2.4192 H         1 <0>         0.1021
     19 H6          2.0028    3.7242    2.1328 H         1 <0>         0.1228
     20 H7          3.3231    4.3425    1.1099 H         1 <0>         0.1021
@<TRIPOS>BOND
     1    1    6 2
     2    1    2 1
     3    1   15 1
     4    2   13 1
     5    2    3 2
     6    3    4 1
     7    3    8 1
     8    4    5 1
     9    4    6 1
    10    6    7 1
    11    8    9 2
    12    8   10 am
    13   10   11 1
    14   10   16 1
    15   11   12 1
    16   11   17 1
    17   11   18 1
    18   12   13 1
    19   12   19 1
    20   12   20 1
    21   13   14 2
@<TRIPOS>MOLECULE
CHEMBL359106
   28    30     0     0     0
SMALL
USER_CHARGES

@<TRIPOS>ATOM
      1 C1         -0.0163    1.3518    0.0095 C.2       1 <0>        -0.0884
      2 C2          1.3148    1.7902   -0.0009 C.2       1 <0>        -0.0166
      3 C3          2.1177    0.6382   -0.0541 C.2       1 <0>        -0.0383
      4 N1          1.2938   -0.4402   -0.0184 N.pl3     1 <0>        -0.4987
      5 H1          1.5772   -1.3679   -0.0093 H         1 <0>         0.4194
      6 C4          0.0021   -0.0041    0.0020 C.2       1 <0>         0.0130
      7 Br1        -1.5265   -1.1172    0.0181 Br        1 <0>        -0.0048
      8 C5          3.5766    0.7389   -0.1870 C.2       1 <0>         0.6103
      9 O1          4.1929    0.0169   -0.9490 O.2       1 <0>        -0.5364
     10 N2          4.2121    1.6686    0.5723 N.am      1 <0>        -0.7165
     11 C6          3.5429    2.2863    1.7070 C.3       1 <0>         0.1190
     12 C7          2.6757    3.4872    1.3174 C.3       1 <0>        -0.0809
     13 C8          1.8765    3.1423    0.0746 C.2       1 <0>        -0.1219
     14 C9          1.6898    4.0463   -0.9242 C.2       1 <0>         0.1025
     15 C10         0.9392    3.8532   -2.1718 C.2       1 <0>         0.4624
     16 O2          0.2923    2.7286   -2.5526 O.3       1 <0>        -0.6219
     17 N3          1.0129    4.9787   -2.8495 N.2       1 <0>        -0.6250
     18 C11         1.7333    5.8883   -2.1759 C.2       1 <0>         0.5797
     19 N4          2.1661    5.3590   -0.9796 N.pl3     1 <0>        -0.7329
     20 N5          1.9843    7.1064   -2.5930 N.2       1 <0>        -0.7932
     21 H2         -0.8955    1.9789    0.0252 H         1 <0>         0.1491
     22 H3          5.1227    1.9234    0.3559 H         1 <0>         0.4037
     23 H4          2.9112    1.5403    2.1892 H         1 <0>         0.0749
     24 H5          4.2974    2.6164    2.4210 H         1 <0>         0.0814
     25 H6          1.9946    3.7249    2.1345 H         1 <0>         0.0835
     26 H7          3.3144    4.3465    1.1128 H         1 <0>         0.0632
     27 H8          2.5153    7.7065   -2.0463 H         1 <0>         0.3143
     28 H9          2.6998    5.8098   -0.3066 H         1 <0>         0.3994
@<TRIPOS>BOND
     1    1    6 2
     2    1    2 1
     3    1   21 1
     4    2   13 1
     5    2    3 2
     6    3    4 1
     7    3    8 1
     8    4    5 1
     9    4    6 1
    10    6    7 1
    11    8    9 2
    12    8   10 am
    13   10   11 1
    14   10   22 1
    15   11   12 1
    16   11   23 1
    17   11   24 1
    18   12   13 1
    19   12   25 1
    20   12   26 1
    21   13   14 2
    22   14   19 1
    23   14   15 1
    24   15   16 1
    25   15   17 2
    26   17   18 1
    27   18   19 1
    28   18   20 2
    29   19   28 1
    30   20   27 1
@<TRIPOS>MOLECULE
CHEMBL359106__1
   28    30     0     0     0
SMALL
USER_CHARGES

@<TRIPOS>ATOM
      1 C1         -0.0163    1.3522    0.0095 C.2       1 <0>        -0.0983
      2 C2          1.3145    1.7899   -0.0009 C.2       1 <0>        -0.0189
      3 C3          2.1168    0.6384   -0.0541 C.2       1 <0>        -0.0368
      4 N1          1.2937   -0.4395   -0.0184 N.pl3     1 <0>        -0.4973
      5 H1          1.5775   -1.3670   -0.0089 H         1 <0>         0.4202
      6 C4          0.0021   -0.0041    0.0020 C.2       1 <0>         0.0129
      7 Br1        -1.5262   -1.1176    0.0181 Br        1 <0>        -0.0030
      8 C5          3.5767    0.7391   -0.1874 C.2       1 <0>         0.6096
      9 O1          4.1928    0.0172   -0.9493 O.2       1 <0>        -0.5368
     10 N2          4.2125    1.6688    0.5718 N.am      1 <0>        -0.7148
     11 C6          3.5436    2.2865    1.7066 C.3       1 <0>         0.1186
     12 C7          2.6766    3.4877    1.3173 C.3       1 <0>        -0.0808
     13 C8          1.8770    3.1431    0.0747 C.2       1 <0>        -0.1306
     14 C9          1.6904    4.0451   -0.9215 C.2       1 <0>         0.0830
     15 C10         0.9363    3.8581   -2.1778 C.2       1 <0>         0.5087
     16 O2          0.3478    2.8508   -2.5352 O.2       1 <0>        -0.5423
     17 N3          1.0276    5.0160   -2.8462 N.2       1 <0>        -0.7196
     18 C11         1.7387    5.8869   -2.1633 C.2       1 <0>         0.5696
     19 N4          2.1642    5.3588   -0.9829 N.pl3     1 <0>        -0.6730
     20 N5          2.0107    7.1602   -2.5824 N.2       1 <0>        -0.8577
     21 H2         -0.8954    1.9794    0.0253 H         1 <0>         0.1497
     22 H3          5.1230    1.9236    0.3550 H         1 <0>         0.4047
     23 H4          2.9118    1.5406    2.1889 H         1 <0>         0.0739
     24 H5          4.2983    2.6165    2.4205 H         1 <0>         0.0821
     25 H6          1.9957    3.7255    2.1345 H         1 <0>         0.0832
     26 H7          3.3154    4.3469    1.1126 H         1 <0>         0.0659
     27 H8          1.6708    7.4730   -3.4354 H         1 <0>         0.3214
     28 H9          2.6983    5.8097   -0.3104 H         1 <0>         0.4064
@<TRIPOS>BOND
     1    1    6 2
     2    1    2 1
     3    1   21 1
     4    2   13 1
     5    2    3 2
     6    3    4 1
     7    3    8 1
     8    4    5 1
     9    4    6 1
    10    6    7 1
    11    8    9 2
    12    8   10 am
    13   10   11 1
    14   10   22 1
    15   11   12 1
    16   11   23 1
    17   11   24 1
    18   12   13 1
    19   12   25 1
    20   12   26 1
    21   13   14 2
    22   14   19 1
    23   14   15 1
    24   15   16 2
    25   15   17 1
    26   17   18 2
    27   18   19 1
    28   18   20 1
    29   19   28 1
    30   20   27 1
@<TRIPOS>MOLECULE
CHEMBL359106__2
   29    31     0     0     0
SMALL
USER_CHARGES

@<TRIPOS>ATOM
      1 C1         -0.0163    1.3522    0.0095 C.2       1 <0>        -0.0939
      2 C2          1.3145    1.7899   -0.0009 C.2       1 <0>        -0.0817
      3 C3          2.1168    0.6384   -0.0541 C.2       1 <0>        -0.0085
      4 N1          1.2937   -0.4395   -0.0184 N.pl3     1 <0>        -0.4867
      5 H1          1.5775   -1.3670   -0.0089 H         1 <0>         0.4287
      6 C4          0.0021   -0.0041    0.0020 C.2       1 <0>         0.0190
      7 Br1        -1.5262   -1.1176    0.0181 Br        1 <0>         0.0181
      8 C5          3.5767    0.7391   -0.1874 C.2       1 <0>         0.6011
      9 O1          4.1928    0.0172   -0.9493 O.2       1 <0>        -0.5178
     10 N2          4.2125    1.6688    0.5718 N.am      1 <0>        -0.7188
     11 C6          3.5436    2.2865    1.7066 C.3       1 <0>         0.1140
     12 C7          2.6766    3.4877    1.3173 C.3       1 <0>        -0.1023
     13 C8          1.8770    3.1431    0.0747 C.2       1 <0>         0.0104
     14 C9          1.6904    4.0451   -0.9215 C.2       1 <0>         0.0011
     15 C10         0.9363    3.8581   -2.1778 C.2       1 <0>         0.5331
     16 O2          0.3478    2.8508   -2.5352 O.2       1 <0>        -0.4515
     17 N3          1.0276    5.0160   -2.8462 N.2       1 <0>        -0.6417
     18 C11         1.7387    5.8869   -2.1633 C.2       1 <0>         0.6550
     19 N4          2.1642    5.3588   -0.9829 N.pl3     1 <0>        -0.6695
     20 N5          2.0107    7.1602   -2.5824 N.pl3     1 <0>        -0.8051
     21 H2         -0.8954    1.9794    0.0253 H         1 <0>         0.1559
     22 H3          5.1230    1.9236    0.3550 H         1 <0>         0.4096
     23 H4          2.9118    1.5406    2.1889 H         1 <0>         0.0822
     24 H5          4.2983    2.6165    2.4205 H         1 <0>         0.0947
     25 H6          1.9957    3.7255    2.1345 H         1 <0>         0.1060
     26 H7          3.3154    4.3469    1.1126 H         1 <0>         0.0753
     27 H8          1.6708    7.4730   -3.4354 H         1 <0>         0.4333
     28 H9          2.5433    7.7504   -2.0267 H         1 <0>         0.4164
     29 H10         2.6983    5.8097   -0.3104 H         1 <0>         0.4239
@<TRIPOS>BOND
     1    1    6 2
     2    1    2 1
     3    1   21 1
     4    2   13 1
     5    2    3 2
     6    3    4 1
     7    3    8 1
     8    4    5 1
     9    4    6 1
    10    6    7 1
    11    8    9 2
    12    8   10 am
    13   10   11 1
    14   10   22 1
    15   11   12 1
    16   11   23 1
    17   11   24 1
    18   12   13 1
    19   12   25 1
    20   12   26 1
    21   13   14 2
    22   14   19 1
    23   14   15 1
    24   15   16 2
    25   15   17 1
    26   17   18 2
    27   18   19 1
    28   18   20 1
    29   19   29 1
    30   20   27 1
    31   20   28 1
@<TRIPOS>MOLECULE
CHEMBL383104
   60    63     0     0     0
SMALL
USER_CHARGES

@<TRIPOS>ATOM
      1 C1         -0.0187    1.5258    0.0104 C.3       1 <0>        -0.1535
      2 C2          0.0021   -0.0041    0.0020 C.3       1 <0>        -0.1217
      3 C3         -1.4333   -0.5336    0.0129 C.3       1 <0>        -0.1327
      4 C4         -1.4126   -2.0635    0.0045 C.3       1 <0>         0.1361
      5 N1         -2.7870   -2.5706    0.0149 N.am      1 <0>        -0.7428
      6 C5         -3.0152   -3.8988    0.0099 C.2       1 <0>         0.7343
      7 O1         -2.0805   -4.6763   -0.0032 O.2       1 <0>        -0.5787
      8 N2         -4.2797   -4.3654    0.0195 N.am      1 <0>        -0.6318
      9 C6         -4.6876   -5.7736    0.0217 C.3       1 <0>         0.2225
     10 C7         -6.1941   -5.8156    0.0340 C.2       1 <0>        -0.3145
     11 C8         -6.6781   -4.5061    0.0390 C.2       1 <0>         0.0671
     12 N3         -7.9877   -4.5524    0.0503 N.2       1 <0>        -0.2506
     13 N4         -8.3822   -5.8959    0.0529 N.pl3     1 <0>        -0.4532
     14 H1         -9.2955   -6.2226    0.0603 H         1 <0>         0.4558
     15 C9         -7.2648   -6.6574    0.0428 C.2       1 <0>         0.3622
     16 N5         -7.2174   -8.0514    0.0411 N.am      1 <0>        -0.6481
     17 C10        -8.3610   -8.7645    0.0506 C.2       1 <0>         0.5180
     18 O2         -9.4314   -8.1942    0.0606 O.2       1 <0>        -0.5150
     19 C11        -8.3098  -10.2707    0.0488 C.3       1 <0>        -0.0852
     20 C12        -9.7126  -10.8210    0.0608 C.ar      1 <0>        -0.1406
     21 C13       -10.3463  -11.0687    1.2647 C.ar      1 <0>        -0.0510
     22 C14       -11.6318  -11.5730    1.2793 C.ar      1 <0>        -0.1946
     23 C15       -12.2884  -11.8315    0.0827 C.ar      1 <0>         0.2433
     24 C16       -11.6490  -11.5816   -1.1248 C.ar      1 <0>        -0.1953
     25 C17       -10.3654  -11.0719   -1.1322 C.ar      1 <0>        -0.0511
     26 N6        -13.5885  -12.3421    0.0938 N.pl3     1 <0>        -0.6364
     27 C18       -14.3798  -12.6452    1.2953 C.3       1 <0>         0.1122
     28 C19       -15.7357  -13.2090    0.8207 C.3       1 <0>        -0.1329
     29 C20       -15.4178  -13.7211   -0.6090 C.3       1 <0>        -0.1341
     30 C21       -14.3968  -12.6601   -1.0973 C.3       1 <0>         0.1104
     31 C22        -5.5043   -3.5595    0.0360 C.3       1 <0>         0.1948
     32 H2          1.0039    1.9031    0.0027 H         1 <0>         0.0564
     33 H3         -0.5459    1.8868   -0.8726 H         1 <0>         0.0546
     34 H4         -0.5289    1.8773    0.9072 H         1 <0>         0.0546
     35 H5          0.5123   -0.3556   -0.8948 H         1 <0>         0.0660
     36 H6          0.5293   -0.3651    0.8851 H         1 <0>         0.0660
     37 H7         -1.9435   -0.1821    0.9097 H         1 <0>         0.0698
     38 H8         -1.9605   -0.1726   -0.8702 H         1 <0>         0.0698
     39 H9         -0.9024   -2.4150   -0.8923 H         1 <0>         0.0685
     40 H10        -0.8854   -2.4246    0.8875 H         1 <0>         0.0685
     41 H11        -3.5327   -1.9503    0.0253 H         1 <0>         0.3976
     42 H12        -4.3116   -6.2684   -0.8738 H         1 <0>         0.0745
     43 H13        -4.2970   -6.2698    0.9102 H         1 <0>         0.0742
     44 H14        -6.3614   -8.5075    0.0331 H         1 <0>         0.4308
     45 H15        -7.7918  -10.6155   -0.8461 H         1 <0>         0.1103
     46 H16        -7.7760  -10.6171    0.9338 H         1 <0>         0.1103
     47 H17        -9.8351  -10.8678    2.1946 H         1 <0>         0.1191
     48 H18       -12.1260  -11.7666    2.2199 H         1 <0>         0.1193
     49 H19       -12.1565  -11.7818   -2.0569 H         1 <0>         0.1197
     50 H20        -9.8693  -10.8732   -2.0707 H         1 <0>         0.1193
     51 H21       -13.8618  -13.3875    1.9027 H         1 <0>         0.0617
     52 H22       -14.5387  -11.7352    1.8738 H         1 <0>         0.0612
     53 H23       -16.0576  -14.0298    1.4616 H         1 <0>         0.0827
     54 H24       -16.4905  -12.4233    0.7900 H         1 <0>         0.0766
     55 H25       -14.9695  -14.7142   -0.5777 H         1 <0>         0.0765
     56 H26       -16.3114  -13.7171   -1.2331 H         1 <0>         0.0841
     57 H27       -14.9135  -11.7692   -1.4541 H         1 <0>         0.0623
     58 H28       -13.7664  -13.0748   -1.8839 H         1 <0>         0.0715
     59 H29        -5.5257   -2.9387    0.9316 H         1 <0>         0.0907
     60 H30        -5.5434   -2.9290   -0.8522 H         1 <0>         0.0904
@<TRIPOS>BOND
     1    1    2 1
     2    1   32 1
     3    1   33 1
     4    1   34 1
     5    2    3 1
     6    2   35 1
     7    2   36 1
     8    3    4 1
     9    3   37 1
    10    3   38 1
    11    4    5 1
    12    4   39 1
    13    4   40 1
    14    5    6 am
    15    5   41 1
    16    6    7 2
    17    6    8 am
    18    8   31 1
    19    8    9 1
    20    9   10 1
    21    9   42 1
    22    9   43 1
    23   10   15 2
    24   10   11 1
    25   11   12 2
    26   11   31 1
    27   12   13 1
    28   13   14 1
    29   13   15 1
    30   15   16 1
    31   16   17 am
    32   16   44 1
    33   17   18 2
    34   17   19 1
    35   19   20 1
    36   19   45 1
    37   19   46 1
    38   20   25 ar
    39   20   21 ar
    40   21   22 ar
    41   21   47 1
    42   22   23 ar
    43   22   48 1
    44   23   24 ar
    45   23   26 1
    46   24   25 ar
    47   24   49 1
    48   25   50 1
    49   26   30 1
    50   26   27 1
    51   27   28 1
    52   27   51 1
    53   27   52 1
    54   28   29 1
    55   28   53 1
    56   28   54 1
    57   29   30 1
    58   29   55 1
    59   29   56 1
    60   30   57 1
    61   30   58 1
    62   31   59 1
    63   31   60 1
@<TRIPOS>MOLECULE
CHEMBL383104__1
   60    63     0     0     0
SMALL
USER_CHARGES

@<TRIPOS>ATOM
      1 C1         -0.0187    1.5258    0.0104 C.3       1 <0>        -0.1535
      2 C2          0.0021   -0.0041    0.0020 C.3       1 <0>        -0.1219
      3 C3         -1.4333   -0.5336    0.0129 C.3       1 <0>        -0.1322
      4 C4         -1.4126   -2.0635    0.0045 C.3       1 <0>         0.1355
      5 N1         -2.7870   -2.5706    0.0149 N.am      1 <0>        -0.7427
      6 C5         -3.0152   -3.8988    0.0099 C.2       1 <0>         0.7345
      7 O1         -2.0805   -4.6763   -0.0032 O.2       1 <0>        -0.5746
      8 N2         -4.2797   -4.3654    0.0195 N.am      1 <0>        -0.6317
      9 C6         -4.6987   -5.7717    0.0219 C.3       1 <0>         0.2115
     10 C7         -6.2064   -5.7953    0.0342 C.2       1 <0>        -0.2813
     11 C8         -6.6732   -4.5295    0.0389 C.2       1 <0>         0.0701
     12 N3         -8.0243   -4.5853    0.0499 N.pl3     1 <0>        -0.4437
     13 N4         -8.4023   -5.9334    0.0520 N.2       1 <0>        -0.2503
     14 H1         -8.6262   -3.8246    0.0556 H         1 <0>         0.4449
     15 C9         -7.3130   -6.6637    0.0426 C.2       1 <0>         0.3392
     16 N5         -7.2606   -8.0643    0.0407 N.am      1 <0>        -0.6441
     17 C10        -8.4018   -8.7813    0.0495 C.2       1 <0>         0.5040
     18 O2         -9.4741   -8.2145    0.0591 O.2       1 <0>        -0.4763
     19 C11        -8.3454  -10.2873    0.0475 C.3       1 <0>        -0.0863
     20 C12        -9.7464  -10.8424    0.0587 C.ar      1 <0>        -0.1341
     21 C13       -10.3798  -11.0924    1.2623 C.ar      1 <0>        -0.0518
     22 C14       -11.6637  -11.6011    1.2762 C.ar      1 <0>        -0.1945
     23 C15       -12.3188  -11.8616    0.0793 C.ar      1 <0>         0.2403
     24 C16       -11.6796  -11.6093   -1.1280 C.ar      1 <0>        -0.1951
     25 C17       -10.3978  -11.0952   -1.1346 C.ar      1 <0>        -0.0519
     26 N6        -13.6171  -12.3765    0.0897 N.pl3     1 <0>        -0.6374
     27 C18       -14.4080  -12.6825    1.2907 C.3       1 <0>         0.1129
     28 C19       -15.7617  -13.2508    0.8153 C.3       1 <0>        -0.1328
     29 C20       -15.4415  -13.7616   -0.6143 C.3       1 <0>        -0.1340
     30 C21       -14.4238  -12.6971   -1.1019 C.3       1 <0>         0.1111
     31 C22        -5.5116   -3.5682    0.0360 C.3       1 <0>         0.1818
     32 H2          1.0039    1.9031    0.0027 H         1 <0>         0.0569
     33 H3         -0.5459    1.8868   -0.8726 H         1 <0>         0.0545
     34 H4         -0.5289    1.8773    0.9072 H         1 <0>         0.0545
     35 H5          0.5123   -0.3556   -0.8948 H         1 <0>         0.0664
     36 H6          0.5293   -0.3651    0.8851 H         1 <0>         0.0664
     37 H7         -1.9435   -0.1821    0.9097 H         1 <0>         0.0694
     38 H8         -1.9605   -0.1726   -0.8702 H         1 <0>         0.0694
     39 H9         -0.9024   -2.4150   -0.8923 H         1 <0>         0.0692
     40 H10        -0.8854   -2.4246    0.8875 H         1 <0>         0.0692
     41 H11        -3.5327   -1.9503    0.0253 H         1 <0>         0.3965
     42 H12        -4.3281   -6.2698   -0.8740 H         1 <0>         0.0777
     43 H13        -4.3119   -6.2716    0.9099 H         1 <0>         0.0777
     44 H14        -6.4030   -8.5175    0.0331 H         1 <0>         0.4223
     45 H15        -7.8259  -10.6302   -0.8472 H         1 <0>         0.1047
     46 H16        -7.8109  -10.6320    0.9327 H         1 <0>         0.1047
     47 H17        -9.8698  -10.8899    2.1925 H         1 <0>         0.1187
     48 H18       -12.1576  -11.7964    2.2165 H         1 <0>         0.1181
     49 H19       -12.1860  -11.8110   -2.0603 H         1 <0>         0.1186
     50 H20        -9.9019  -10.8947   -2.0728 H         1 <0>         0.1188
     51 H21       -13.8878  -13.4231    1.8982 H         1 <0>         0.0610
     52 H22       -14.5703  -11.7732    1.8693 H         1 <0>         0.0606
     53 H23       -16.0812  -14.0728    1.4560 H         1 <0>         0.0820
     54 H24       -16.5192  -12.4677    0.7844 H         1 <0>         0.0761
     55 H25       -14.9899  -14.7532   -0.5829 H         1 <0>         0.0761
     56 H26       -16.3348  -13.7605   -1.2388 H         1 <0>         0.0834
     57 H27       -14.9433  -11.8078   -1.4589 H         1 <0>         0.0614
     58 H28       -13.7916  -13.1095   -1.8883 H         1 <0>         0.0710
     59 H29        -5.5393   -2.9484    0.9322 H         1 <0>         0.0898
     60 H30        -5.5570   -2.9387   -0.8526 H         1 <0>         0.0894
@<TRIPOS>BOND
     1    1    2 1
     2    1   32 1
     3    1   33 1
     4    1   34 1
     5    2    3 1
     6    2   35 1
     7    2   36 1
     8    3    4 1
     9    3   37 1
    10    3   38 1
    11    4    5 1
    12    4   39 1
    13    4   40 1
    14    5    6 am
    15    5   41 1
    16    6    7 2
    17    6    8 am
    18    8   31 1
    19    8    9 1
    20    9   42 1
    21    9   43 1
    22    9   10 1
    23   10   15 1
    24   10   11 2
    25   11   31 1
    26   11   12 1
    27   12   13 1
    28   12   14 1
    29   13   15 2
    30   15   16 1
    31   16   17 am
    32   16   44 1
    33   17   18 2
    34   17   19 1
    35   19   20 1
    36   19   45 1
    37   19   46 1
    38   20   25 ar
    39   20   21 ar
    40   21   22 ar
    41   21   47 1
    42   22   23 ar
    43   22   48 1
    44   23   24 ar
    45   23   26 1
    46   24   25 ar
    47   24   49 1
    48   25   50 1
    49   26   30 1
    50   26   27 1
    51   27   28 1
    52   27   51 1
    53   27   52 1
    54   28   29 1
    55   28   53 1
    56   28   54 1
    57   29   30 1
    58   29   55 1
    59   29   56 1
    60   30   57 1
    61   30   58 1
    62   31   59 1
    63   31   60 1
@<TRIPOS>MOLECULE
CHEMBL597754
   71    75     0     0     0
SMALL
USER_CHARGES

@<TRIPOS>ATOM
      1 C1         -3.8759   -1.8885   -4.8129 C.3       1 <0>         0.0869
      2 N1         -3.4158   -3.2014   -4.3538 N.am      1 <0>        -0.7232
      3 C2         -2.8140   -3.3229   -3.1540 C.2       1 <0>         0.6059
      4 O1         -2.6531   -2.3430   -2.4527 O.2       1 <0>        -0.5251
      5 C3         -2.3499   -4.6470   -2.6910 C.2       1 <0>        -0.0125
      6 C4         -1.7195   -4.9270   -1.4783 C.2       1 <0>        -0.1031
      7 C5         -1.4863   -6.2848   -1.4849 C.2       1 <0>         0.0317
      8 N2         -1.9492   -6.7590   -2.6588 N.pl3     1 <0>        -0.2398
      9 N3         -2.4592   -5.7929   -3.3467 N.2       1 <0>        -0.2492
     10 C6         -1.8879   -8.1589   -3.0865 C.3       1 <0>         0.0826
     11 C7         -0.8516   -6.9363   -0.3264 C.ar      1 <0>         0.2944
     12 C8         -0.7679   -6.1934    0.8610 C.ar      1 <0>        -0.2256
     13 C9         -0.1366   -6.7753    1.9439 C.ar      1 <0>         0.2014
     14 N4          0.3292   -8.0104    1.8320 N.ar      1 <0>        -0.5643
     15 C10         0.1977   -8.6986    0.7072 C.ar      1 <0>         0.5712
     16 N5         -0.3875   -8.1755   -0.3623 N.ar      1 <0>        -0.5668
     17 N6          0.6828   -9.9935    0.6466 N.pl3     1 <0>        -0.6941
     18 C11         1.3325  -10.5879    1.8174 C.3       1 <0>         0.1644
     19 C12         0.2693  -11.1840    2.7428 C.3       1 <0>        -0.1445
     20 C13         0.9494  -11.7738    3.9823 C.3       1 <0>         0.1084
     21 N7          1.9764  -12.7305    3.5480 N.am      1 <0>        -0.6150
     22 C14         2.9951  -12.2858    2.5872 C.3       1 <0>         0.1161
     23 C15         2.2920  -11.6903    1.3633 C.3       1 <0>        -0.1429
     24 C16         1.9840  -13.9921    4.0222 C.2       1 <0>         0.5215
     25 O2          2.7873  -14.7950    3.5967 O.2       1 <0>        -0.5329
     26 C17         0.9946  -14.4050    5.0812 C.3       1 <0>        -0.1059
     27 C18         1.5094  -13.9730    6.4562 C.3       1 <0>        -0.1214
     28 C19         0.4851  -14.3635    7.5263 C.3       1 <0>         0.1197
     29 N8          0.2055  -15.8013    7.4110 N.pl3     1 <0>        -1.0014
     30 C20        -0.2092  -16.3381    6.1077 C.3       1 <0>         0.1179
     31 C21         0.8229  -15.9255    5.0535 C.3       1 <0>        -0.1140
     32 S1          0.3556  -16.7980    8.7250 S.o2      1 <0>         2.6089
     33 O3          0.6263  -18.0811    8.1777 O.2       1 <0>        -0.9517
     34 O4          1.3047  -16.1528    9.5629 O.2       1 <0>        -0.9530
     35 C22        -1.2803  -16.7855    9.5088 C.3       1 <0>        -0.6735
     36 C23        -1.3833   -4.8293    0.9743 C.3       1 <0>        -0.0623
     37 C24        -1.3124   -4.0434   -0.3352 C.3       1 <0>        -0.0495
     38 H1         -3.0275   -1.2070   -4.8737 H         1 <0>         0.0633
     39 H2         -4.3335   -1.9877   -5.7972 H         1 <0>         0.0783
     40 H3         -4.6092   -1.4941   -4.1094 H         1 <0>         0.0633
     41 H4         -3.5442   -3.9833   -4.9134 H         1 <0>         0.4085
     42 H5         -2.7896   -8.6779   -2.7615 H         1 <0>         0.0871
     43 H6         -1.8144   -8.2039   -4.1730 H         1 <0>         0.0988
     44 H7         -1.0141   -8.6363   -2.6431 H         1 <0>         0.1120
     45 H8         -0.0247   -6.2302    2.8696 H         1 <0>         0.1742
     46 H9          0.5926  -10.5075   -0.1711 H         1 <0>         0.4125
     47 H10         1.8898   -9.8192    2.3528 H         1 <0>         0.0964
     48 H11        -0.4274  -10.4029    3.0471 H         1 <0>         0.0825
     49 H12        -0.2720  -11.9700    2.2162 H         1 <0>         0.0679
     50 H13         1.4152  -10.9744    4.5587 H         1 <0>         0.0768
     51 H14         0.2089  -12.2862    4.5964 H         1 <0>         0.0914
     52 H15         3.6277  -11.5282    3.0498 H         1 <0>         0.0729
     53 H16         3.6044  -13.1361    2.2808 H         1 <0>         0.0994
     54 H17         1.7317  -12.4715    0.8497 H         1 <0>         0.0737
     55 H18         3.0350  -11.2695    0.6858 H         1 <0>         0.0839
     56 H19         0.0342  -13.9275    4.8868 H         1 <0>         0.0965
     57 H20         2.4577  -14.4693    6.6620 H         1 <0>         0.0793
     58 H21         1.6536  -12.8926    6.4677 H         1 <0>         0.0817
     59 H22         0.8896  -14.1480    8.5152 H         1 <0>         0.1003
     60 H23        -0.4350  -13.7991    7.3747 H         1 <0>         0.0729
     61 H24        -0.2627  -17.4255    6.1607 H         1 <0>         0.0998
     62 H25        -1.1859  -15.9347    5.8404 H         1 <0>         0.0712
     63 H26         0.4786  -16.2348    4.0667 H         1 <0>         0.0800
     64 H27         1.7777  -16.4034    5.2726 H         1 <0>         0.0831
     65 H28        -2.0239  -17.1570    8.8037 H         1 <0>         0.1273
     66 H29        -1.2652  -17.4248   10.3914 H         1 <0>         0.1284
     67 H30        -1.5348  -15.7670    9.8022 H         1 <0>         0.1272
     68 H31        -2.4285   -4.9371    1.2644 H         1 <0>         0.0792
     69 H32        -0.8602   -4.2699    1.7499 H         1 <0>         0.0875
     70 H33        -0.2924   -3.6931   -0.4931 H         1 <0>         0.0824
     71 H34        -1.9849   -3.1873   -0.2813 H         1 <0>         0.1014
@<TRIPOS>BOND
     1    1    2 1
     2    1   38 1
     3    1   39 1
     4    1   40 1
     5    2    3 am
     6    2   41 1
     7    3    4 2
     8    3    5 1
     9    5    9 2
    10    5    6 1
    11    6   37 1
    12    6    7 2
    13    7    8 1
    14    7   11 1
    15    8    9 1
    16    8   10 1
    17   10   42 1
    18   10   43 1
    19   10   44 1
    20   11   16 ar
    21   11   12 ar
    22   12   13 ar
    23   12   36 1
    24   13   14 ar
    25   13   45 1
    26   14   15 ar
    27   15   16 ar
    28   15   17 1
    29   17   18 1
    30   17   46 1
    31   18   23 1
    32   18   19 1
    33   18   47 1
    34   19   20 1
    35   19   48 1
    36   19   49 1
    37   20   21 1
    38   20   50 1
    39   20   51 1
    40   21   22 1
    41   21   24 am
    42   22   23 1
    43   22   52 1
    44   22   53 1
    45   23   54 1
    46   23   55 1
    47   24   25 2
    48   24   26 1
    49   26   31 1
    50   26   27 1
    51   26   56 1
    52   27   28 1
    53   27   57 1
    54   27   58 1
    55   28   29 1
    56   28   59 1
    57   28   60 1
    58   29   30 1
    59   29   32 1
    60   30   31 1
    61   30   61 1
    62   30   62 1
    63   31   63 1
    64   31   64 1
    65   32   33 2
    66   32   34 2
    67   32   35 1
    68   35   65 1
    69   35   66 1
    70   35   67 1
    71   36   37 1
    72   36   68 1
    73   36   69 1
    74   37   70 1
    75   37   71 1
@<TRIPOS>MOLECULE
CHEMBL1092754
   55    59     0     0     0
SMALL
USER_CHARGES

@<TRIPOS>ATOM
      1 C1         -0.4192    1.4159    0.0566 C.3       1 <0>         0.0727
      2 N1         -0.1016   -0.0136    0.0117 N.pl3     1 <0>        -0.4581
      3 C2         -0.1908   -0.7897   -1.0975 C.2       1 <0>         0.1293
      4 C3          0.1811   -2.0806   -0.7851 C.2       1 <0>        -0.1757
      5 C4          0.5246   -2.0730    0.6464 C.ar      1 <0>        -0.1106
      6 C5          0.3345   -0.7539    1.0889 C.ar      1 <0>         0.2836
      7 N2          0.5756   -0.4422    2.3559 N.ar      1 <0>        -0.4889
      8 C6          0.9961   -1.3357    3.2271 C.ar      1 <0>         0.1395
      9 C7          1.2113   -2.6536    2.8696 C.ar      1 <0>        -0.1753
     10 C8          0.9674   -3.0495    1.5523 C.ar      1 <0>         0.0341
     11 C9          1.1853   -4.4499    1.1217 C.ar      1 <0>        -0.0286
     12 C10         2.0507   -4.7273    0.0624 C.ar      1 <0>        -0.1099
     13 C11         2.2540   -6.0285   -0.3381 C.ar      1 <0>        -0.0524
     14 C12         1.5938   -7.0716    0.3161 C.ar      1 <0>        -0.1250
     15 C13         0.7278   -6.7932    1.3763 C.ar      1 <0>        -0.0829
     16 C14         0.5295   -5.4919    1.7792 C.ar      1 <0>        -0.1062
     17 C15         1.8112   -8.4684   -0.1135 C.2       1 <0>         0.5568
     18 O1          2.5646   -8.7103   -1.0364 O.2       1 <0>        -0.5309
     19 N3          1.1742   -9.4745    0.5179 N.am      1 <0>        -0.7213
     20 C16         1.3896  -10.8595    0.0919 C.3       1 <0>         0.1186
     21 C17         0.5549  -11.7976    0.9660 C.3       1 <0>         0.0626
     22 O2         -0.8340  -11.5455    0.7439 O.3       1 <0>        -0.5715
     23 C18         0.2253   -3.2260   -1.6930 C.2       1 <0>         0.0485
     24 C19         0.1951   -3.0287   -3.0404 C.2       1 <0>        -0.0763
     25 C20         0.2260   -4.0478   -4.0299 C.2       1 <0>         0.4132
     26 O3          0.2838   -5.2531   -3.8509 O.2       1 <0>        -0.4176
     27 C21         0.1722   -3.3362   -5.3178 C.ar      1 <0>        -0.2958
     28 C22         0.1703   -3.7556   -6.6523 C.ar      1 <0>         0.2182
     29 C23         0.1107   -2.8116   -7.6645 C.ar      1 <0>        -0.1883
     30 C24         0.0541   -1.4640   -7.3536 C.ar      1 <0>        -0.0320
     31 C25         0.0556   -1.0416   -6.0394 C.ar      1 <0>        -0.1507
     32 C26         0.1143   -1.9689   -5.0062 C.ar      1 <0>         0.1544
     33 O4          0.1245   -1.8283   -3.6631 O.3       1 <0>        -0.2160
     34 O5          0.2268   -5.0776   -6.9532 O.3       1 <0>        -0.4871
     35 H1          0.4758    1.9943   -0.1727 H         1 <0>         0.0780
     36 H2         -1.1939    1.6391   -0.6770 H         1 <0>         0.0891
     37 H3         -0.7758    1.6778    1.0527 H         1 <0>         0.0928
     38 H4         -0.5048   -0.4497   -2.0733 H         1 <0>         0.1919
     39 H5          1.1779   -1.0309    4.2472 H         1 <0>         0.1673
     40 H6          1.5571   -3.3692    3.6007 H         1 <0>         0.1443
     41 H7          2.5606   -3.9208   -0.4435 H         1 <0>         0.1325
     42 H8          2.9234   -6.2430   -1.1581 H         1 <0>         0.1416
     43 H9          0.2171   -7.5991    1.8825 H         1 <0>         0.1302
     44 H10        -0.1368   -5.2768    2.6015 H         1 <0>         0.1342
     45 H11         0.5730   -9.2814    1.2543 H         1 <0>         0.4025
     46 H12         1.0890  -10.9702   -0.9499 H         1 <0>         0.0784
     47 H13         2.4453  -11.1110    0.1942 H         1 <0>         0.0851
     48 H14         0.7821  -12.8321    0.7087 H         1 <0>         0.0662
     49 H15         0.7925  -11.6237    2.0155 H         1 <0>         0.0542
     50 H16        -1.4240  -12.1058    1.2666 H         1 <0>         0.3839
     51 H17         0.2820   -4.2285   -1.2952 H         1 <0>         0.1649
     52 H18         0.1088   -3.1275   -8.6973 H         1 <0>         0.1431
     53 H19         0.0086   -0.7344   -8.1485 H         1 <0>         0.1466
     54 H20         0.0111    0.0135   -5.8133 H         1 <0>         0.1410
     55 H21        -0.6392   -5.5017   -7.0263 H         1 <0>         0.4016
@<TRIPOS>BOND
     1    1    2 1
     2    1   35 1
     3    1   36 1
     4    1   37 1
     5    2    6 1
     6    2    3 1
     7    3    4 2
     8    3   38 1
     9    4    5 1
    10    4   23 1
    11    5   10 ar
    12    5    6 ar
    13    6    7 ar
    14    7    8 ar
    15    8    9 ar
    16    8   39 1
    17    9   10 ar
    18    9   40 1
    19   10   11 1
    20   11   16 ar
    21   11   12 ar
    22   12   13 ar
    23   12   41 1
    24   13   14 ar
    25   13   42 1
    26   14   15 ar
    27   14   17 1
    28   15   16 ar
    29   15   43 1
    30   16   44 1
    31   17   18 2
    32   17   19 am
    33   19   20 1
    34   19   45 1
    35   20   21 1
    36   20   46 1
    37   20   47 1
    38   21   22 1
    39   21   48 1
    40   21   49 1
    41   22   50 1
    42   23   24 2
    43   23   51 1
    44   24   33 1
    45   24   25 1
    46   25   26 2
    47   25   27 1
    48   27   32 ar
    49   27   28 ar
    50   28   29 ar
    51   28   34 1
    52   29   30 ar
    53   29   52 1
    54   30   31 ar
    55   30   53 1
    56   31   32 ar
    57   31   54 1
    58   32   33 1
    59   34   55 1
@<TRIPOS>MOLECULE
CHEMBL599224
   50    53     0     0     0
SMALL
USER_CHARGES

@<TRIPOS>ATOM
      1 C1         -0.0184    1.5028    0.0103 C.3       1 <0>        -0.1755
      2 C2          0.0021   -0.0041    0.0020 C.2       1 <0>         0.5128
      3 O1          1.0605   -0.5961   -0.0113 O.2       1 <0>        -0.5432
      4 N1         -1.1558   -0.6938    0.0094 N.am      1 <0>        -0.6179
      5 C3         -2.4459    0.0093    0.0193 C.3       1 <0>         0.1123
      6 C4         -3.2826   -0.5121    1.1918 C.3       1 <0>        -0.1453
      7 C5         -3.3975   -2.0350    1.0938 C.3       1 <0>         0.1640
      8 C6         -2.0032   -2.6601    1.1798 C.3       1 <0>        -0.1424
      9 C7         -1.1521   -2.1630    0.0014 C.3       1 <0>         0.1139
     10 N2         -4.2248   -2.5339    2.1952 N.pl3     1 <0>        -0.6943
     11 C8         -4.8990   -3.7357    2.0649 C.ar      1 <0>         0.5709
     12 N3         -4.7808   -4.4250    0.9390 N.ar      1 <0>        -0.5638
     13 C9         -5.4197   -5.5716    0.7612 C.ar      1 <0>         0.2025
     14 C10        -6.2180   -6.0614    1.7778 C.ar      1 <0>        -0.2253
     15 C11        -6.2974   -5.3197    2.9649 C.ar      1 <0>         0.2928
     16 N4         -5.6436   -4.1726    3.0719 N.ar      1 <0>        -0.5666
     17 C12        -7.0818   -5.8963    4.0704 C.2       1 <0>         0.0323
     18 C13        -7.4682   -7.2190    4.0305 C.2       1 <0>        -0.1033
     19 C14        -8.1932   -7.4349    5.2029 C.2       1 <0>        -0.0156
     20 N5         -8.1911   -6.2948    5.8777 N.2       1 <0>        -0.2485
     21 N6         -7.5338   -5.3892    5.2340 N.pl3     1 <0>        -0.2388
     22 C15        -7.3119   -4.0178    5.6988 C.3       1 <0>         0.0817
     23 C16        -8.8409   -8.6974    5.6146 C.2       1 <0>         0.6124
     24 O2         -8.7682   -9.6788    4.9008 O.2       1 <0>        -0.5293
     25 N7         -9.5123   -8.7610    6.7815 N.am      1 <0>        -0.8412
     26 C17        -7.1001   -8.1357    2.9005 C.3       1 <0>        -0.0500
     27 C18        -6.9913   -7.3358    1.6018 C.3       1 <0>        -0.0626
     28 H1          1.0042    1.8801    0.0026 H         1 <0>         0.0931
     29 H2         -0.5455    1.8639   -0.8728 H         1 <0>         0.0891
     30 H3         -0.5286    1.8543    0.9071 H         1 <0>         0.0882
     31 H4         -2.2778    1.0797    0.1379 H         1 <0>         0.0943
     32 H5         -2.9716   -0.1786   -0.9169 H         1 <0>         0.0763
     33 H6         -2.7996   -0.2434    2.1313 H         1 <0>         0.0749
     34 H7         -4.2778   -0.0690    1.1540 H         1 <0>         0.0854
     35 H8         -3.8581   -2.3040    0.1432 H         1 <0>         0.0962
     36 H9         -1.5323   -2.3712    2.1194 H         1 <0>         0.0669
     37 H10        -2.0878   -3.7458    1.1334 H         1 <0>         0.0814
     38 H11        -1.5745   -2.5244   -0.9361 H         1 <0>         0.0727
     39 H12        -0.1300   -2.5264    0.1083 H         1 <0>         0.0958
     40 H13        -4.3000   -2.0220    3.0157 H         1 <0>         0.4121
     41 H14        -5.3180   -6.1167   -0.1656 H         1 <0>         0.1746
     42 H15        -8.1228   -3.3795    5.3479 H         1 <0>         0.0876
     43 H16        -7.2839   -4.0035    6.7884 H         1 <0>         0.0991
     44 H17        -6.3640   -3.6499    5.3062 H         1 <0>         0.1122
     45 H18        -9.5704   -7.9780    7.3510 H         1 <0>         0.4078
     46 H19        -9.9376   -9.5899    7.0517 H         1 <0>         0.4082
     47 H20        -6.1425   -8.6099    3.1155 H         1 <0>         0.0826
     48 H21        -7.8670   -8.9024    2.7910 H         1 <0>         0.1019
     49 H22        -7.9947   -7.0942    1.2509 H         1 <0>         0.0796
     50 H23        -6.4946   -7.9491    0.8500 H         1 <0>         0.0879
@<TRIPOS>BOND
     1    1    2 1
     2    1   28 1
     3    1   29 1
     4    1   30 1
     5    2    3 2
     6    2    4 am
     7    4    9 1
     8    4    5 1
     9    5    6 1
    10    5   31 1
    11    5   32 1
    12    6    7 1
    13    6   33 1
    14    6   34 1
    15    7    8 1
    16    7   10 1
    17    7   35 1
    18    8    9 1
    19    8   36 1
    20    8   37 1
    21    9   38 1
    22    9   39 1
    23   10   11 1
    24   10   40 1
    25   11   16 ar
    26   11   12 ar
    27   12   13 ar
    28   13   14 ar
    29   13   41 1
    30   14   27 1
    31   14   15 ar
    32   15   16 ar
    33   15   17 1
    34   17   21 1
    35   17   18 2
    36   18   19 1
    37   18   26 1
    38   19   20 2
    39   19   23 1
    40   20   21 1
    41   21   22 1
    42   22   42 1
    43   22   43 1
    44   22   44 1
    45   23   24 2
    46   23   25 am
    47   25   45 1
    48   25   46 1
    49   26   27 1
    50   26   47 1
    51   26   48 1
    52   27   49 1
    53   27   50 1
@<TRIPOS>MOLECULE
CHEMBL414139
   68    72     0     0     0
SMALL
USER_CHARGES

@<TRIPOS>ATOM
      1 C1         -2.9893    0.6438   -1.8364 C.3       1 <0>         0.0226
      2 O1         -3.1268   -0.7486   -1.5458 O.3       1 <0>        -0.2982
      3 C2         -3.8825   -1.0822   -0.4657 C.ar      1 <0>         0.1257
      4 C3         -4.4707   -0.0997    0.2777 C.ar      1 <0>        -0.1563
      5 C4         -5.2508   -0.4407    1.3923 C.ar      1 <0>        -0.1003
      6 C5         -5.4257   -1.8013    1.7429 C.ar      1 <0>         0.1669
      7 C6         -4.8105   -2.7928    0.9635 C.ar      1 <0>        -0.1780
      8 C7         -4.0551   -2.4319   -0.1291 C.ar      1 <0>         0.1592
      9 O2         -3.4657   -3.3939   -0.8859 O.3       1 <0>        -0.2926
     10 C8         -3.6790   -4.7508   -0.4918 C.3       1 <0>         0.0549
     11 C9         -2.9431   -5.6836   -1.4558 C.3       1 <0>        -0.1159
     12 C10        -3.1715   -7.1364   -1.0338 C.3       1 <0>         0.0586
     13 N1         -2.4649   -8.0320   -1.9593 N.3       1 <0>        -0.5364
     14 C11        -3.0529   -7.9691   -3.3053 C.3       1 <0>         0.0124
     15 C12        -2.2513   -8.8695   -4.2491 C.3       1 <0>         0.0624
     16 O3         -2.2328  -10.2012   -3.7280 O.3       1 <0>        -0.3853
     17 C13        -1.6659  -10.2993   -2.4186 C.3       1 <0>         0.0626
     18 C14        -2.4616   -9.4134   -1.4563 C.3       1 <0>         0.0174
     19 N2         -6.1711   -2.1342    2.8071 N.ar      1 <0>        -0.4635
     20 C15        -6.7574   -1.2327    3.5526 C.ar      1 <0>         0.1794
     21 C16        -6.6387    0.1393    3.2786 C.ar      1 <0>        -0.0915
     22 C17        -5.8720    0.5563    2.1798 C.ar      1 <0>         0.2691
     23 N3         -5.7297    1.8955    1.8769 N.pl3     1 <0>        -0.7077
     24 C18        -6.6323    2.5155    1.0059 C.ar      1 <0>         0.1723
     25 C19        -7.6150    1.7648    0.3735 C.ar      1 <0>        -0.1411
     26 C20        -8.5053    2.3774   -0.4858 C.ar      1 <0>        -0.0987
     27 C21        -8.4185    3.7426   -0.7177 C.ar      1 <0>         0.0831
     28 C22        -7.4371    4.4933   -0.0864 C.ar      1 <0>        -0.1479
     29 C23        -6.5497    3.8831    0.7777 C.ar      1 <0>        -0.1381
     30 O4         -9.2952    4.3450   -1.5644 O.3       1 <0>        -0.2612
     31 C24        -9.1824    5.6862   -1.7514 C.ar      1 <0>         0.0839
     32 C25        -8.3712    6.1811   -2.7625 C.ar      1 <0>        -0.1271
     33 C26        -8.2586    7.5450   -2.9508 C.ar      1 <0>        -0.1065
     34 C27        -8.9530    8.4167   -2.1324 C.ar      1 <0>        -0.1175
     35 C28        -9.7617    7.9261   -1.1237 C.ar      1 <0>        -0.1060
     36 C29        -9.8826    6.5631   -0.9352 C.ar      1 <0>        -0.1266
     37 C30        -7.2931    1.1028    4.1117 C.1       1 <0>         0.2562
     38 N4         -7.8123    1.8672    4.7726 N.1       1 <0>        -0.3967
     39 H1         -2.3637    0.7705   -2.7200 H         1 <0>         0.1066
     40 H2         -3.9729    1.0749   -2.0227 H         1 <0>         0.0594
     41 H3         -2.5264    1.1479   -0.9881 H         1 <0>         0.0581
     42 H4         -4.3355    0.9374    0.0083 H         1 <0>         0.1488
     43 H5         -4.9336   -3.8354    1.2169 H         1 <0>         0.1558
     44 H6         -3.2991   -4.8996    0.5190 H         1 <0>         0.0708
     45 H7         -4.7460   -4.9725   -0.5151 H         1 <0>         0.0685
     46 H8         -3.3230   -5.5348   -2.4665 H         1 <0>         0.0766
     47 H9         -1.8761   -5.4619   -1.4324 H         1 <0>         0.0863
     48 H10        -2.7915   -7.2852   -0.0230 H         1 <0>         0.0816
     49 H11        -4.2384   -7.3581   -1.0571 H         1 <0>         0.0406
     50 H12        -4.0871   -8.3111   -3.2670 H         1 <0>         0.0447
     51 H13        -3.0217   -6.9418   -3.6684 H         1 <0>         0.0905
     52 H14        -2.7175   -8.8706   -5.2343 H         1 <0>         0.0993
     53 H15        -1.2305   -8.4957   -4.3291 H         1 <0>         0.0611
     54 H16        -1.7088  -11.3345   -2.0801 H         1 <0>         0.0996
     55 H17        -0.6281   -9.9671   -2.4455 H         1 <0>         0.0611
     56 H18        -1.9988   -9.4404   -0.4698 H         1 <0>         0.0882
     57 H19        -3.4864   -9.7785   -1.3885 H         1 <0>         0.0448
     58 H20        -7.3473   -1.5518    4.3992 H         1 <0>         0.1731
     59 H21        -5.0039    2.4066    2.2679 H         1 <0>         0.4170
     60 H22        -7.6825    0.7020    0.5537 H         1 <0>         0.1276
     61 H23        -9.2692    1.7937   -0.9779 H         1 <0>         0.1353
     62 H24        -7.3702    5.5559   -0.2674 H         1 <0>         0.1308
     63 H25        -5.7889    4.4684    1.2727 H         1 <0>         0.1283
     64 H26        -7.8280    5.5007   -3.4016 H         1 <0>         0.1308
     65 H27        -7.6274    7.9307   -3.7376 H         1 <0>         0.1309
     66 H28        -8.8633    9.4827   -2.2810 H         1 <0>         0.1288
     67 H29       -10.3024    8.6092   -0.4855 H         1 <0>         0.1309
     68 H30       -10.5181    6.1803   -0.1503 H         1 <0>         0.1307
@<TRIPOS>BOND
     1    1    2 1
     2    1   39 1
     3    1   40 1
     4    1   41 1
     5    2    3 1
     6    3    8 ar
     7    3    4 ar
     8    4    5 ar
     9    4   42 1
    10    5   22 ar
    11    5    6 ar
    12    6    7 ar
    13    6   19 ar
    14    7    8 ar
    15    7   43 1
    16    8    9 1
    17    9   10 1
    18   10   11 1
    19   10   44 1
    20   10   45 1
    21   11   12 1
    22   11   46 1
    23   11   47 1
    24   12   13 1
    25   12   48 1
    26   12   49 1
    27   13   18 1
    28   13   14 1
    29   14   15 1
    30   14   50 1
    31   14   51 1
    32   15   16 1
    33   15   52 1
    34   15   53 1
    35   16   17 1
    36   17   18 1
    37   17   54 1
    38   17   55 1
    39   18   56 1
    40   18   57 1
    41   19   20 ar
    42   20   21 ar
    43   20   58 1
    44   21   22 ar
    45   21   37 1
    46   22   23 1
    47   23   24 1
    48   23   59 1
    49   24   29 ar
    50   24   25 ar
    51   25   26 ar
    52   25   60 1
    53   26   27 ar
    54   26   61 1
    55   27   28 ar
    56   27   30 1
    57   28   29 ar
    58   28   62 1
    59   29   63 1
    60   30   31 1
    61   31   36 ar
    62   31   32 ar
    63   32   33 ar
    64   32   64 1
    65   33   34 ar
    66   33   65 1
    67   34   35 ar
    68   34   66 1
    69   35   36 ar
    70   35   67 1
    71   36   68 1
    72   37   38 3
@<TRIPOS>MOLECULE
CHEMBL414139__1
   69    73     0     0     0
SMALL
USER_CHARGES

@<TRIPOS>ATOM
      1 C1          3.0790    0.7251   -1.6559 C.3       1 <0>         0.0214
      2 O1          2.9177   -0.6644   -1.9480 O.3       1 <0>        -0.3025
      3 C2          2.3651   -0.9827   -3.1490 C.ar      1 <0>         0.1223
      4 C3          2.0000    0.0116   -4.0104 C.ar      1 <0>        -0.1475
      5 C4          1.4298   -0.3136   -5.2498 C.ar      1 <0>        -0.0970
      6 C5          1.2347   -1.6706   -5.6037 C.ar      1 <0>         0.1615
      7 C6          1.6178   -2.6745   -4.7013 C.ar      1 <0>        -0.1702
      8 C7          2.1809   -2.3288   -3.4938 C.ar      1 <0>         0.1489
      9 O2          2.5568   -3.3027   -2.6243 O.3       1 <0>        -0.2943
     10 C8          2.3432   -4.6552   -3.0332 C.3       1 <0>         0.0566
     11 C9          2.8248   -5.6027   -1.9327 C.3       1 <0>        -0.1505
     12 C10         2.5961   -7.0508   -2.3704 C.3       1 <0>        -0.0061
     13 N1          3.0585   -7.9606   -1.3138 N.4       1 <0>        -0.3842
     14 C11         4.5134   -7.8286   -1.1556 C.3       1 <0>        -0.0502
     15 C12         4.9927   -8.7773   -0.0541 C.3       1 <0>         0.0361
     16 O3          4.6202  -10.1167   -0.3904 O.3       1 <0>        -0.3563
     17 C13         3.2131  -10.2909   -0.5786 C.3       1 <0>         0.0355
     18 C14         2.7305   -9.3450   -1.6811 C.3       1 <0>        -0.0434
     19 N2          0.6908   -1.9884   -6.7878 N.ar      1 <0>        -0.4664
     20 C15         0.3241   -1.0751   -7.6502 C.ar      1 <0>         0.1847
     21 C16         0.4807    0.2945   -7.3830 C.ar      1 <0>        -0.0817
     22 C17         1.0428    0.6960   -6.1615 C.ar      1 <0>         0.2721
     23 N3          1.2131    2.0322   -5.8601 N.pl3     1 <0>        -0.7097
     24 C18         2.4087    2.6777   -6.1937 C.ar      1 <0>         0.1672
     25 C19         3.4592    1.9541   -6.7434 C.ar      1 <0>        -0.1419
     26 C20         4.6388    2.5919   -7.0723 C.ar      1 <0>        -0.1007
     27 C21         4.7750    3.9553   -6.8539 C.ar      1 <0>         0.0875
     28 C22         3.7261    4.6789   -6.3049 C.ar      1 <0>        -0.1474
     29 C23         2.5439    4.0436   -5.9807 C.ar      1 <0>        -0.1349
     30 O4          5.9370    4.5825   -7.1777 O.3       1 <0>        -0.2601
     31 C24         6.0217    5.9210   -6.9597 C.ar      1 <0>         0.0804
     32 C25         6.4843    6.3990   -5.7419 C.ar      1 <0>        -0.1271
     33 C26         6.5698    7.7602   -5.5231 C.ar      1 <0>        -0.1064
     34 C27         6.1945    8.6463   -6.5160 C.ar      1 <0>        -0.1153
     35 C28         5.7327    8.1726   -7.7303 C.ar      1 <0>        -0.1050
     36 C29         5.6510    6.8123   -7.9565 C.ar      1 <0>        -0.1259
     37 C30         0.0713    1.2712   -8.3468 C.1       1 <0>         0.2483
     38 N4         -0.2536    2.0461   -9.1114 N.1       1 <0>        -0.3840
     39 H1          3.7252    1.1814   -2.4058 H         1 <0>         0.0619
     40 H2          2.1051    1.2145   -1.6691 H         1 <0>         0.0604
     41 H3          3.5296    0.8392   -0.6700 H         1 <0>         0.1084
     42 H4          2.1495    1.0459   -3.7379 H         1 <0>         0.1518
     43 H5          1.4761   -3.7145   -4.9554 H         1 <0>         0.1531
     44 H6          1.2803   -4.8170   -3.2125 H         1 <0>         0.0789
     45 H7          2.9001   -4.8499   -3.9497 H         1 <0>         0.0788
     46 H8          3.8877   -5.4409   -1.7534 H         1 <0>         0.1005
     47 H9          2.2679   -5.4080   -1.0161 H         1 <0>         0.1012
     48 H10         1.5332   -7.2126   -2.5498 H         1 <0>         0.1384
     49 H11         3.1530   -7.2456   -3.2870 H         1 <0>         0.1363
     50 H12         5.0058   -8.0829   -2.0942 H         1 <0>         0.1409
     51 H13         4.7578   -6.8019   -0.8830 H         1 <0>         0.1448
     52 H14         6.0770   -8.7126    0.0356 H         1 <0>         0.1427
     53 H15         4.5311   -8.4980    0.8931 H         1 <0>         0.0819
     54 H16         3.0095  -11.3217   -0.8685 H         1 <0>         0.1429
     55 H17         2.6906  -10.0635    0.3506 H         1 <0>         0.0818
     56 H18         1.6514   -9.4441   -1.7987 H         1 <0>         0.1441
     57 H19         3.2236   -9.5988   -2.6195 H         1 <0>         0.1404
     58 H20        -0.1093   -1.3821   -8.5905 H         1 <0>         0.1762
     59 H21         0.5038    2.5236   -5.4169 H         1 <0>         0.4184
     60 H22         3.3535    0.8928   -6.9131 H         1 <0>         0.1255
     61 H23         5.4558    2.0293   -7.4994 H         1 <0>         0.1354
     62 H24         3.8329    5.7401   -6.1352 H         1 <0>         0.1327
     63 H25         1.7258    4.6079   -5.5578 H         1 <0>         0.1293
     64 H26         6.7769    5.7074   -4.9658 H         1 <0>         0.1300
     65 H27         6.9298    8.1328   -4.5754 H         1 <0>         0.1316
     66 H28         6.2618    9.7101   -6.3428 H         1 <0>         0.1302
     67 H29         5.4395    8.8668   -8.5039 H         1 <0>         0.1322
     68 H30         5.2948    6.4429   -8.9068 H         1 <0>         0.1310
     69 H31         2.6028   -7.7261   -0.4447 H         1 <0>         0.4245
@<TRIPOS>BOND
     1    1    2 1
     2    1   39 1
     3    1   40 1
     4    1   41 1
     5    2    3 1
     6    3    8 ar
     7    3    4 ar
     8    4    5 ar
     9    4   42 1
    10    5   22 ar
    11    5    6 ar
    12    6    7 ar
    13    6   19 ar
    14    7    8 ar
    15    7   43 1
    16    8    9 1
    17    9   10 1
    18   10   11 1
    19   10   44 1
    20   10   45 1
    21   11   12 1
    22   11   46 1
    23   11   47 1
    24   12   13 1
    25   12   48 1
    26   12   49 1
    27   13   18 1
    28   13   14 1
    29   13   69 1
    30   14   15 1
    31   14   50 1
    32   14   51 1
    33   15   16 1
    34   15   52 1
    35   15   53 1
    36   16   17 1
    37   17   18 1
    38   17   54 1
    39   17   55 1
    40   18   56 1
    41   18   57 1
    42   19   20 ar
    43   20   21 ar
    44   20   58 1
    45   21   22 ar
    46   21   37 1
    47   22   23 1
    48   23   24 1
    49   23   59 1
    50   24   29 ar
    51   24   25 ar
    52   25   26 ar
    53   25   60 1
    54   26   27 ar
    55   26   61 1
    56   27   28 ar
    57   27   30 1
    58   28   29 ar
    59   28   62 1
    60   29   63 1
    61   30   31 1
    62   31   36 ar
    63   31   32 ar
    64   32   33 ar
    65   32   64 1
    66   33   34 ar
    67   33   65 1
    68   34   35 ar
    69   34   66 1
    70   35   36 ar
    71   35   67 1
    72   36   68 1
    73   37   38 3
@<TRIPOS>MOLECULE
CHEMBL220054
   48    51     0     0     0
SMALL
USER_CHARGES

@<TRIPOS>ATOM
      1 C1          0.4585    0.4884    0.9561 C.ar      1 <0>        -0.1053
      2 C2          1.6076    1.2518    1.0011 C.ar      1 <0>        -0.0998
      3 C3          2.4549    1.2978   -0.1049 C.ar      1 <0>         0.0176
      4 C4          2.1363    0.5716   -1.2514 C.ar      1 <0>        -0.1040
      5 C5          0.9840   -0.1888   -1.2854 C.ar      1 <0>        -0.0324
      6 C6          0.1465   -0.2303   -0.1835 C.ar      1 <0>        -0.1156
      7 Cl1         0.5845   -1.0937   -2.7121 Cl        1 <0>        -0.0710
      8 C7          3.6902    2.1165   -0.0621 C.2       1 <0>        -0.2037
      9 C8          4.0508    3.1299   -0.9685 C.2       1 <0>         0.0722
     10 N1          5.2047    3.6215   -0.6039 N.2       1 <0>        -0.2871
     11 N2          5.6429    2.9556    0.5466 N.pl3     1 <0>        -0.4647
     12 H1          6.4701    3.1267    1.0233 H         1 <0>         0.4422
     13 C9          4.7029    2.0294    0.8832 C.2       1 <0>         0.1918
     14 C10         4.7529    1.1045    2.0356 C.2       1 <0>        -0.1449
     15 C11         5.0814    1.4409    3.3654 C.2       1 <0>        -0.0773
     16 C12         5.0056    0.2925    4.1007 C.2       1 <0>        -0.0519
     17 N3          4.6408   -0.7344    3.2595 N.pl3     1 <0>        -0.5281
     18 H2          4.5146   -1.6594    3.5227 H         1 <0>         0.4216
     19 C13         4.4814   -0.2472    2.0125 C.2       1 <0>         0.0829
     20 C14         5.2686    0.1735    5.5394 C.2       1 <0>         0.5932
     21 O1          5.5864    1.1561    6.1831 O.2       1 <0>        -0.5224
     22 N4          5.1581   -1.0240    6.1478 N.am      1 <0>        -0.7200
     23 C15         5.4207   -1.1428    7.5842 C.3       1 <0>         0.1955
     24 C16         6.9218   -1.3287    7.8146 C.3       1 <0>         0.0662
     25 O2          7.3400   -2.5728    7.2497 O.3       1 <0>        -0.5690
     26 C17         4.6770   -2.3326    8.1341 C.ar      1 <0>        -0.0923
     27 C18         4.6144   -3.5055    7.4046 C.ar      1 <0>        -0.0584
     28 C19         3.9333   -4.5977    7.9074 C.ar      1 <0>        -0.1407
     29 C20         3.3129   -4.5177    9.1426 C.ar      1 <0>         0.1157
     30 C21         3.3759   -3.3421    9.8731 C.ar      1 <0>        -0.0735
     31 C22         4.0629   -2.2522    9.3697 C.ar      1 <0>        -0.0701
     32 Cl2         2.5989   -3.2394   11.4221 Cl        1 <0>        -0.0419
     33 F1          2.6464   -5.5848    9.6348 F         1 <0>        -0.1235
     34 H3         -0.1960    0.4488    1.8142 H         1 <0>         0.1306
     35 H4          1.8497    1.8128    1.8916 H         1 <0>         0.1270
     36 H5          2.7889    0.6038   -2.1113 H         1 <0>         0.1339
     37 H6         -0.7536   -0.8264   -0.2139 H         1 <0>         0.1311
     38 H7          3.4713    3.4477   -1.8226 H         1 <0>         0.1869
     39 H8          5.3438    2.4220    3.7330 H         1 <0>         0.1533
     40 H9          4.1925   -0.8188    1.1429 H         1 <0>         0.1806
     41 H10         4.9048   -1.8072    5.6347 H         1 <0>         0.3970
     42 H11         5.0845   -0.2383    8.0910 H         1 <0>         0.1178
     43 H12         7.4661   -0.5126    7.3394 H         1 <0>         0.0611
     44 H13         7.1279   -1.3281    8.8850 H         1 <0>         0.0615
     45 H14         8.2829   -2.7572    7.3588 H         1 <0>         0.3842
     46 H15         5.0980   -3.5680    6.4409 H         1 <0>         0.1389
     47 H16         3.8845   -5.5134    7.3369 H         1 <0>         0.1481
     48 H17         4.1162   -1.3370    9.9406 H         1 <0>         0.1467
@<TRIPOS>BOND
     1    1    6 ar
     2    1    2 ar
     3    1   34 1
     4    2    3 ar
     5    2   35 1
     6    3    4 ar
     7    3    8 1
     8    4    5 ar
     9    4   36 1
    10    5    6 ar
    11    5    7 1
    12    6   37 1
    13    8   13 2
    14    8    9 1
    15    9   10 2
    16    9   38 1
    17   10   11 1
    18   11   12 1
    19   11   13 1
    20   13   14 1
    21   14   19 2
    22   14   15 1
    23   15   16 2
    24   15   39 1
    25   16   17 1
    26   16   20 1
    27   17   18 1
    28   17   19 1
    29   19   40 1
    30   20   21 2
    31   20   22 am
    32   22   23 1
    33   22   41 1
    34   23   24 1
    35   23   26 1
    36   23   42 1
    37   24   25 1
    38   24   43 1
    39   24   44 1
    40   25   45 1
    41   26   31 ar
    42   26   27 ar
    43   27   28 ar
    44   27   46 1
    45   28   29 ar
    46   28   47 1
    47   29   30 ar
    48   29   33 1
    49   30   31 ar
    50   30   32 1
    51   31   48 1
@<TRIPOS>MOLECULE
CHEMBL220054__1
   48    51     0     0     0
SMALL
USER_CHARGES

@<TRIPOS>ATOM
      1 C1         -0.0167    1.3786    0.0096 C.ar      1 <0>        -0.1038
      2 C2          1.1676    2.0878    0.0021 C.ar      1 <0>        -0.1106
      3 C3          2.3840    1.4085   -0.0131 C.ar      1 <0>         0.0145
      4 C4          2.3983    0.0151   -0.0207 C.ar      1 <0>        -0.0965
      5 C5          1.2076   -0.6849   -0.0131 C.ar      1 <0>        -0.0326
      6 C6          0.0021   -0.0041    0.0020 C.ar      1 <0>        -0.1163
      7 Cl1         1.2227   -2.4208   -0.0230 Cl        1 <0>        -0.0706
      8 C7          3.6597    2.1660   -0.0217 C.2       1 <0>        -0.2032
      9 C8          3.9817    3.1931   -0.8578 C.2       1 <0>         0.0825
     10 N1          5.2257    3.6075   -0.5427 N.pl3     1 <0>        -0.4697
     11 N2          5.6983    2.8234    0.5164 N.2       1 <0>        -0.2800
     12 H1          5.7109    4.3266   -0.9767 H         1 <0>         0.4446
     13 C9          4.7639    1.9580    0.8421 C.2       1 <0>         0.1753
     14 C10         4.8515    0.9411    1.9196 C.2       1 <0>        -0.1178
     15 C11         6.0090    0.2429    2.3146 C.2       1 <0>        -0.0657
     16 C12         5.6459   -0.5903    3.3354 C.2       1 <0>        -0.0577
     17 N3          4.3004   -0.4148    3.5685 N.pl3     1 <0>        -0.5321
     18 H2          3.7794   -0.8811    4.2408 H         1 <0>         0.4194
     19 C13         3.8255    0.5150    2.7144 C.2       1 <0>         0.0728
     20 C14         6.5335   -1.5100    4.0557 C.2       1 <0>         0.5950
     21 O1          7.7114   -1.5775    3.7574 O.2       1 <0>        -0.5234
     22 N4          6.0445   -2.2801    5.0478 N.am      1 <0>        -0.7212
     23 C15         6.9308   -3.1985    5.7669 C.3       1 <0>         0.1953
     24 C16         7.0358   -4.5153    4.9950 C.3       1 <0>         0.0663
     25 O2          5.7601   -5.1589    4.9753 O.3       1 <0>        -0.5686
     26 C17         6.3708   -3.4647    7.1405 C.ar      1 <0>        -0.0909
     27 C18         5.0096   -3.6389    7.3095 C.ar      1 <0>        -0.0580
     28 C19         4.4944   -3.8835    8.5683 C.ar      1 <0>        -0.1408
     29 C20         5.3415   -3.9543    9.6610 C.ar      1 <0>         0.1147
     30 C21         6.7054   -3.7797    9.4910 C.ar      1 <0>        -0.0736
     31 C22         7.2190   -3.5401    8.2292 C.ar      1 <0>        -0.0704
     32 Cl2         7.7697   -3.8679   10.8597 Cl        1 <0>        -0.0431
     33 F1          4.8387   -4.1930   10.8920 F         1 <0>        -0.1241
     34 H3         -0.9598    1.9047    0.0260 H         1 <0>         0.1327
     35 H4          1.1513    3.1677    0.0077 H         1 <0>         0.1287
     36 H5          3.3383   -0.5164   -0.0328 H         1 <0>         0.1337
     37 H6         -0.9269   -0.5549    0.0079 H         1 <0>         0.1317
     38 H7          3.3526    3.6020   -1.6347 H         1 <0>         0.1815
     39 H8          6.9969    0.3459    1.8906 H         1 <0>         0.1533
     40 H9          2.8041    0.8626    2.6654 H         1 <0>         0.1753
     41 H10         5.1056   -2.2264    5.2856 H         1 <0>         0.3967
     42 H11         7.9206   -2.7511    5.8585 H         1 <0>         0.1174
     43 H12         7.3564   -4.3128    3.9731 H         1 <0>         0.0616
     44 H13         7.7630   -5.1650    5.4820 H         1 <0>         0.0605
     45 H14         5.7521   -6.0018    4.5014 H         1 <0>         0.3836
     46 H15         4.3486   -3.5834    6.4573 H         1 <0>         0.1395
     47 H16         3.4310   -4.0191    8.6996 H         1 <0>         0.1478
     48 H17         8.2825   -3.4083    8.0952 H         1 <0>         0.1466
@<TRIPOS>BOND
     1    1    6 ar
     2    1    2 ar
     3    1   34 1
     4    2    3 ar
     5    2   35 1
     6    3    4 ar
     7    3    8 1
     8    4    5 ar
     9    4   36 1
    10    5    6 ar
    11    5    7 1
    12    6   37 1
    13    8   13 1
    14    8    9 2
    15    9   38 1
    16    9   10 1
    17   10   11 1
    18   10   12 1
    19   11   13 2
    20   13   14 1
    21   14   19 2
    22   14   15 1
    23   15   16 2
    24   15   39 1
    25   16   17 1
    26   16   20 1
    27   17   18 1
    28   17   19 1
    29   19   40 1
    30   20   21 2
    31   20   22 am
    32   22   23 1
    33   22   41 1
    34   23   24 1
    35   23   26 1
    36   23   42 1
    37   24   25 1
    38   24   43 1
    39   24   44 1
    40   25   45 1
    41   26   31 ar
    42   26   27 ar
    43   27   28 ar
    44   27   46 1
    45   28   29 ar
    46   28   47 1
    47   29   30 ar
    48   29   33 1
    49   30   31 ar
    50   30   32 1
    51   31   48 1
@<TRIPOS>MOLECULE
CHEMBL220054__2
   48    51     0     0     0
SMALL
USER_CHARGES

@<TRIPOS>ATOM
      1 C1          0.4585    0.4884    0.9561 C.ar      1 <0>        -0.1053
      2 C2          1.6076    1.2518    1.0011 C.ar      1 <0>        -0.0998
      3 C3          2.4549    1.2978   -0.1049 C.ar      1 <0>         0.0179
      4 C4          2.1363    0.5716   -1.2514 C.ar      1 <0>        -0.1040
      5 C5          0.9840   -0.1888   -1.2854 C.ar      1 <0>        -0.0323
      6 C6          0.1465   -0.2303   -0.1835 C.ar      1 <0>        -0.1157
      7 Cl1         0.5845   -1.0937   -2.7121 Cl        1 <0>        -0.0709
      8 C7          3.6902    2.1165   -0.0621 C.2       1 <0>        -0.2042
      9 C8          4.0508    3.1299   -0.9685 C.2       1 <0>         0.0722
     10 N1          5.2047    3.6215   -0.6039 N.2       1 <0>        -0.2870
     11 N2          5.6429    2.9556    0.5466 N.pl3     1 <0>        -0.4647
     12 H1          6.4701    3.1267    1.0233 H         1 <0>         0.4423
     13 C9          4.7029    2.0294    0.8832 C.2       1 <0>         0.1919
     14 C10         4.7529    1.1045    2.0356 C.2       1 <0>        -0.1450
     15 C11         5.0814    1.4409    3.3654 C.2       1 <0>        -0.0772
     16 C12         5.0056    0.2925    4.1007 C.2       1 <0>        -0.0519
     17 N3          4.6408   -0.7344    3.2595 N.pl3     1 <0>        -0.5281
     18 H2          4.5146   -1.6594    3.5227 H         1 <0>         0.4216
     19 C13         4.4814   -0.2472    2.0125 C.2       1 <0>         0.0829
     20 C14         5.2686    0.1735    5.5394 C.2       1 <0>         0.5932
     21 O1          5.5864    1.1561    6.1831 O.2       1 <0>        -0.5224
     22 N4          5.1581   -1.0240    6.1478 N.am      1 <0>        -0.7201
     23 C15         5.4207   -1.1428    7.5842 C.3       1 <0>         0.1954
     24 C16         4.1522   -0.7935    8.3651 C.3       1 <0>         0.0664
     25 O2          3.1386   -1.7610    8.0848 O.3       1 <0>        -0.5688
     26 C17         5.8343   -2.5562    7.9041 C.ar      1 <0>        -0.0920
     27 C18         5.2054   -3.6178    7.2801 C.ar      1 <0>        -0.0587
     28 C19         5.5837   -4.9146    7.5718 C.ar      1 <0>        -0.1405
     29 C20         6.5930   -5.1512    8.4895 C.ar      1 <0>         0.1156
     30 C21         7.2227   -4.0870    9.1144 C.ar      1 <0>        -0.0734
     31 C22         6.8457   -2.7899    8.8166 C.ar      1 <0>        -0.0703
     32 Cl2         8.4886   -4.3811   10.2654 Cl        1 <0>        -0.0420
     33 F1          6.9631   -6.4186    8.7757 F         1 <0>        -0.1235
     34 H3         -0.1960    0.4488    1.8142 H         1 <0>         0.1305
     35 H4          1.8497    1.8128    1.8916 H         1 <0>         0.1269
     36 H5          2.7889    0.6038   -2.1113 H         1 <0>         0.1339
     37 H6         -0.7536   -0.8264   -0.2139 H         1 <0>         0.1311
     38 H7          3.4713    3.4477   -1.8226 H         1 <0>         0.1869
     39 H8          5.3438    2.4220    3.7330 H         1 <0>         0.1533
     40 H9          4.1925   -0.8188    1.1429 H         1 <0>         0.1806
     41 H10         4.9048   -1.8072    5.6347 H         1 <0>         0.3970
     42 H11         6.2206   -0.4578    7.8652 H         1 <0>         0.1177
     43 H12         4.3709   -0.7953    9.4330 H         1 <0>         0.0614
     44 H13         3.8030    0.1952    8.0675 H         1 <0>         0.0614
     45 H14         2.3044   -1.6019    8.5471 H         1 <0>         0.3842
     46 H15         4.4178   -3.4335    6.5645 H         1 <0>         0.1388
     47 H16         5.0918   -5.7433    7.0843 H         1 <0>         0.1481
     48 H17         7.3392   -1.9597    9.3000 H         1 <0>         0.1467
@<TRIPOS>BOND
     1    1    6 ar
     2    1    2 ar
     3    1   34 1
     4    2    3 ar
     5    2   35 1
     6    3    4 ar
     7    3    8 1
     8    4    5 ar
     9    4   36 1
    10    5    6 ar
    11    5    7 1
    12    6   37 1
    13    8   13 2
    14    8    9 1
    15    9   10 2
    16    9   38 1
    17   10   11 1
    18   11   12 1
    19   11   13 1
    20   13   14 1
    21   14   19 2
    22   14   15 1
    23   15   16 2
    24   15   39 1
    25   16   17 1
    26   16   20 1
    27   17   18 1
    28   17   19 1
    29   19   40 1
    30   20   21 2
    31   20   22 am
    32   22   23 1
    33   22   41 1
    34   23   24 1
    35   23   26 1
    36   23   42 1
    37   24   25 1
    38   24   43 1
    39   24   44 1
    40   25   45 1
    41   26   31 ar
    42   26   27 ar
    43   27   28 ar
    44   27   46 1
    45   28   29 ar
    46   28   47 1
    47   29   30 ar
    48   29   33 1
    49   30   31 ar
    50   30   32 1
    51   31   48 1
@<TRIPOS>MOLECULE
CHEMBL220054__3
   48    51     0     0     0
SMALL
USER_CHARGES

@<TRIPOS>ATOM
      1 C1         -0.0167    1.3786    0.0096 C.ar      1 <0>        -0.1038
      2 C2          1.1676    2.0878    0.0021 C.ar      1 <0>        -0.1107
      3 C3          2.3840    1.4085   -0.0131 C.ar      1 <0>         0.0145
      4 C4          2.3983    0.0151   -0.0207 C.ar      1 <0>        -0.0967
      5 C5          1.2076   -0.6849   -0.0131 C.ar      1 <0>        -0.0327
      6 C6          0.0021   -0.0041    0.0020 C.ar      1 <0>        -0.1162
      7 Cl1         1.2227   -2.4208   -0.0230 Cl        1 <0>        -0.0703
      8 C7          3.6597    2.1660   -0.0217 C.2       1 <0>        -0.2031
      9 C8          3.9817    3.1931   -0.8578 C.2       1 <0>         0.0825
     10 N1          5.2257    3.6075   -0.5427 N.pl3     1 <0>        -0.4698
     11 N2          5.6983    2.8234    0.5164 N.2       1 <0>        -0.2802
     12 H1          5.7109    4.3266   -0.9767 H         1 <0>         0.4445
     13 C9          4.7639    1.9580    0.8421 C.2       1 <0>         0.1754
     14 C10         4.8515    0.9411    1.9196 C.2       1 <0>        -0.1178
     15 C11         6.0090    0.2429    2.3146 C.2       1 <0>        -0.0657
     16 C12         5.6459   -0.5903    3.3354 C.2       1 <0>        -0.0577
     17 N3          4.3004   -0.4148    3.5685 N.pl3     1 <0>        -0.5321
     18 H2          3.7794   -0.8811    4.2408 H         1 <0>         0.4194
     19 C13         3.8255    0.5150    2.7144 C.2       1 <0>         0.0728
     20 C14         6.5335   -1.5100    4.0557 C.2       1 <0>         0.5950
     21 O1          7.7114   -1.5775    3.7574 O.2       1 <0>        -0.5234
     22 N4          6.0445   -2.2801    5.0478 N.am      1 <0>        -0.7213
     23 C15         6.9308   -3.1985    5.7669 C.3       1 <0>         0.1953
     24 C16         7.6362   -2.4462    6.8972 C.3       1 <0>         0.0663
     25 O2          6.6708   -2.0202    7.8608 O.3       1 <0>        -0.5688
     26 C17         6.1199   -4.3293    6.3456 C.ar      1 <0>        -0.0906
     27 C18         4.8782   -4.0763    6.8987 C.ar      1 <0>        -0.0583
     28 C19         4.1331   -5.1121    7.4294 C.ar      1 <0>        -0.1406
     29 C20         4.6300   -6.4041    7.4074 C.ar      1 <0>         0.1148
     30 C21         5.8743   -6.6570    6.8531 C.ar      1 <0>        -0.0734
     31 C22         6.6157   -5.6191    6.3179 C.ar      1 <0>        -0.0705
     32 Cl2         6.4996   -8.2762    6.8244 Cl        1 <0>        -0.0430
     33 F1          3.9024   -7.4172    7.9264 F         1 <0>        -0.1241
     34 H3         -0.9598    1.9047    0.0260 H         1 <0>         0.1327
     35 H4          1.1513    3.1677    0.0077 H         1 <0>         0.1287
     36 H5          3.3383   -0.5164   -0.0328 H         1 <0>         0.1338
     37 H6         -0.9269   -0.5549    0.0079 H         1 <0>         0.1317
     38 H7          3.3526    3.6020   -1.6347 H         1 <0>         0.1815
     39 H8          6.9969    0.3459    1.8906 H         1 <0>         0.1533
     40 H9          2.8041    0.8626    2.6654 H         1 <0>         0.1753
     41 H10         5.1056   -2.2264    5.2856 H         1 <0>         0.3967
     42 H11         7.6743   -3.5999    5.0783 H         1 <0>         0.1175
     43 H12         8.3607   -3.1052    7.3756 H         1 <0>         0.0607
     44 H13         8.1505   -1.5762    6.4890 H         1 <0>         0.0617
     45 H14         7.0481   -1.5353    8.6076 H         1 <0>         0.3835
     46 H15         4.4906   -3.0684    6.9162 H         1 <0>         0.1390
     47 H16         3.1634   -4.9136    7.8615 H         1 <0>         0.1478
     48 H17         7.5838   -5.8162    5.8816 H         1 <0>         0.1466
@<TRIPOS>BOND
     1    1    6 ar
     2    1    2 ar
     3    1   34 1
     4    2    3 ar
     5    2   35 1
     6    3    4 ar
     7    3    8 1
     8    4    5 ar
     9    4   36 1
    10    5    6 ar
    11    5    7 1
    12    6   37 1
    13    8   13 1
    14    8    9 2
    15    9   38 1
    16    9   10 1
    17   10   11 1
    18   10   12 1
    19   11   13 2
    20   13   14 1
    21   14   19 2
    22   14   15 1
    23   15   16 2
    24   15   39 1
    25   16   17 1
    26   16   20 1
    27   17   18 1
    28   17   19 1
    29   19   40 1
    30   20   21 2
    31   20   22 am
    32   22   23 1
    33   22   41 1
    34   23   24 1
    35   23   26 1
    36   23   42 1
    37   24   25 1
    38   24   43 1
    39   24   44 1
    40   25   45 1
    41   26   31 ar
    42   26   27 ar
    43   27   28 ar
    44   27   46 1
    45   28   29 ar
    46   28   47 1
    47   29   30 ar
    48   29   33 1
    49   30   31 ar
    50   30   32 1
    51   31   48 1
@<TRIPOS>MOLECULE
CHEMBL584754
   57    60     0     0     0
SMALL
USER_CHARGES

@<TRIPOS>ATOM
      1 C1         -4.2991   -4.1455    3.1959 C.3       1 <0>        -0.1148
      2 C2         -3.2999   -3.7059    2.1569 C.ar      1 <0>        -0.1185
      3 C3         -3.3567   -4.2270    0.8790 C.ar      1 <0>        -0.1007
      4 C4         -2.4407   -3.8239   -0.0750 C.ar      1 <0>        -0.1362
      5 C5         -1.4649   -2.8980    0.2465 C.ar      1 <0>        -0.1053
      6 C6         -1.4025   -2.3731    1.5222 C.ar      1 <0>        -0.1130
      7 C7         -2.3246   -2.7721    2.4816 C.ar      1 <0>         0.1665
      8 N1         -2.2676   -2.2386    3.7727 N.pl3     1 <0>        -0.6373
      9 C8         -1.0461   -1.8869    4.3235 C.ar      1 <0>         0.5545
     10 N2          0.0660   -2.1634    3.6578 N.ar      1 <0>        -0.5545
     11 C9          1.2527   -1.8432    4.1499 C.ar      1 <0>         0.1869
     12 C10         1.3280   -1.2109    5.3773 C.ar      1 <0>        -0.2284
     13 C11         0.1384   -0.9318    6.0569 C.ar      1 <0>         0.2955
     14 N3         -1.0199   -1.2784    5.4988 N.ar      1 <0>        -0.5562
     15 C12         0.1659   -0.2557    7.3752 C.2       1 <0>        -0.1531
     16 C13         0.9344    0.8748    7.7196 C.2       1 <0>        -0.0654
     17 C14         0.6579    1.1651    9.0248 C.2       1 <0>        -0.0572
     18 N4         -0.2565    0.2447    9.4858 N.pl3     1 <0>        -0.5307
     19 H1         -0.6263    0.2193   10.3822 H         1 <0>         0.4203
     20 C15        -0.5594   -0.6110    8.4913 C.2       1 <0>         0.0837
     21 C16         1.2357    2.2677    9.8021 C.2       1 <0>         0.5924
     22 O1          2.0389    3.0213    9.2848 O.2       1 <0>        -0.5256
     23 N5          0.8766    2.4456   11.0889 N.am      1 <0>        -0.7186
     24 C17         1.4533    3.5463   11.8648 C.3       1 <0>         0.1926
     25 H2          1.6060    4.4080   11.2150 H         1 <0>         0.1123
     26 C18         2.7957    3.1071   12.4532 C.3       1 <0>         0.0677
     27 O2          2.5813    2.0530   13.3939 O.3       1 <0>        -0.5670
     28 C19         0.5134    3.9199   12.9820 C.ar      1 <0>        -0.0935
     29 C20        -0.1511    2.9327   13.6854 C.ar      1 <0>        -0.0918
     30 C21        -1.0133    3.2753   14.7101 C.ar      1 <0>        -0.1209
     31 C22        -1.2107    4.6052   15.0318 C.ar      1 <0>        -0.1154
     32 C23        -0.5455    5.5923   14.3290 C.ar      1 <0>        -0.1184
     33 C24         0.3200    5.2495   13.3071 C.ar      1 <0>        -0.1083
     34 C25         2.6612   -0.8319    5.9689 C.3       1 <0>        -0.0966
     35 H3         -5.1713   -3.4927    3.1604 H         1 <0>         0.0699
     36 H4         -4.6051   -5.1720    2.9943 H         1 <0>         0.0708
     37 H5         -3.8435   -4.0897    4.1846 H         1 <0>         0.0620
     38 H6         -4.1173   -4.9505    0.6248 H         1 <0>         0.1241
     39 H7         -2.4871   -4.2332   -1.0734 H         1 <0>         0.1216
     40 H8         -0.7507   -2.5855   -0.5009 H         1 <0>         0.1233
     41 H9         -0.6403   -1.6501    1.7726 H         1 <0>         0.1356
     42 H10        -3.0833   -2.1148    4.2828 H         1 <0>         0.4217
     43 H11         2.1524   -2.0737    3.5987 H         1 <0>         0.1702
     44 H12         1.6142    1.4100    7.0732 H         1 <0>         0.1552
     45 H13        -1.2517   -1.4373    8.5581 H         1 <0>         0.1805
     46 H14         0.2363    1.8449   11.5013 H         1 <0>         0.3966
     47 H15         3.4449    2.7529   11.6524 H         1 <0>         0.0579
     48 H16         3.2662    3.9523   12.9555 H         1 <0>         0.0586
     49 H17         3.3913    1.7243   13.8075 H         1 <0>         0.3810
     50 H18         0.0031    1.8937   13.4341 H         1 <0>         0.1207
     51 H19        -1.5330    2.5041   15.2592 H         1 <0>         0.1229
     52 H20        -1.8848    4.8729   15.8319 H         1 <0>         0.1229
     53 H21        -0.6999    6.6313   14.5801 H         1 <0>         0.1248
     54 H22         0.8425    6.0205   12.7604 H         1 <0>         0.1243
     55 H23         2.8829    0.2079    5.7287 H         1 <0>         0.0714
     56 H24         2.6267   -0.9554    7.0513 H         1 <0>         0.0719
     57 H25         3.4384   -1.4741    5.5545 H         1 <0>         0.0670
@<TRIPOS>BOND
     1    1    2 1
     2    1   35 1
     3    1   36 1
     4    1   37 1
     5    2    7 ar
     6    2    3 ar
     7    3    4 ar
     8    3   38 1
     9    4    5 ar
    10    4   39 1
    11    5    6 ar
    12    5   40 1
    13    6    7 ar
    14    6   41 1
    15    7    8 1
    16    8    9 1
    17    8   42 1
    18    9   14 ar
    19    9   10 ar
    20   10   11 ar
    21   11   12 ar
    22   11   43 1
    23   12   13 ar
    24   12   34 1
    25   13   14 ar
    26   13   15 1
    27   15   20 2
    28   15   16 1
    29   16   17 2
    30   16   44 1
    31   17   18 1
    32   17   21 1
    33   18   19 1
    34   18   20 1
    35   20   45 1
    36   21   22 2
    37   21   23 am
    38   23   24 1
    39   23   46 1
    40   24   25 1
    41   24   26 1
    42   24   28 1
    43   26   27 1
    44   26   47 1
    45   26   48 1
    46   27   49 1
    47   28   33 ar
    48   28   29 ar
    49   29   30 ar
    50   29   50 1
    51   30   31 ar
    52   30   51 1
    53   31   32 ar
    54   31   52 1
    55   32   33 ar
    56   32   53 1
    57   33   54 1
    58   34   55 1
    59   34   56 1
    60   34   57 1
@<TRIPOS>MOLECULE
CHEMBL572361
   60    63     0     0     0
SMALL
USER_CHARGES

@<TRIPOS>ATOM
      1 C1          4.5326   -6.4040   -0.4576 C.3       1 <0>        -0.1493
      2 C2          5.0741   -5.6445   -1.6704 C.3       1 <0>        -0.0852
      3 C3          4.0465   -4.6461   -2.1377 C.ar      1 <0>        -0.1143
      4 C4          3.1665   -4.9812   -3.1483 C.ar      1 <0>        -0.0981
      5 C5          2.2231   -4.0660   -3.5773 C.ar      1 <0>        -0.1370
      6 C6          2.1572   -2.8125   -2.9966 C.ar      1 <0>        -0.1043
      7 C7          3.0339   -2.4711   -1.9859 C.ar      1 <0>        -0.1142
      8 C8          3.9795   -3.3902   -1.5489 C.ar      1 <0>         0.1697
      9 N1          4.8653   -3.0496   -0.5221 N.pl3     1 <0>        -0.6372
     10 C9          5.2923   -1.7392   -0.3819 C.ar      1 <0>         0.5542
     11 N2          4.9389   -0.8440   -1.2931 N.ar      1 <0>        -0.5542
     12 C10         5.3262    0.4183   -1.1947 C.ar      1 <0>         0.1867
     13 C11         6.1110    0.8038   -0.1236 C.ar      1 <0>        -0.2285
     14 C12         6.4682   -0.1621    0.8221 C.ar      1 <0>         0.2955
     15 N3          6.0382   -1.4121    0.6615 N.ar      1 <0>        -0.5562
     16 C13         7.3078    0.2008    1.9879 C.2       1 <0>        -0.1531
     17 C14         7.1453    1.3295    2.8168 C.2       1 <0>        -0.0654
     18 C15         8.1281    1.2769    3.7631 C.2       1 <0>        -0.0572
     19 N4          8.8848    0.1493    3.5353 N.pl3     1 <0>        -0.5307
     20 H1          9.6497   -0.1309    4.0618 H         1 <0>         0.4203
     21 C16         8.3893   -0.5051    2.4679 C.2       1 <0>         0.0837
     22 C17         8.3412    2.2535    4.8376 C.2       1 <0>         0.5924
     23 O1          7.6039    3.2161    4.9399 O.2       1 <0>        -0.5256
     24 N5          9.3536    2.0842    5.7111 N.am      1 <0>        -0.7187
     25 C18         9.5664    3.0592    6.7837 C.3       1 <0>         0.1926
     26 H2          8.6034    3.4362    7.1282 H         1 <0>         0.1123
     27 C19        10.4101    4.2215    6.2564 C.3       1 <0>         0.0677
     28 O2         11.7135    3.7466    5.9132 O.3       1 <0>        -0.5671
     29 C20        10.2854    2.3959    7.9300 C.ar      1 <0>        -0.0934
     30 C21        11.3086    1.5009    7.6790 C.ar      1 <0>        -0.0918
     31 C22        11.9682    0.8925    8.7305 C.ar      1 <0>        -0.1209
     32 C23        11.6049    1.1795   10.0330 C.ar      1 <0>        -0.1154
     33 C24        10.5824    2.0751   10.2841 C.ar      1 <0>        -0.1184
     34 C25         9.9256    2.6868    9.2326 C.ar      1 <0>        -0.1083
     35 C26         6.5709    2.2316    0.0210 C.3       1 <0>        -0.0966
     36 H3          4.3186   -5.6996    0.3462 H         1 <0>         0.0512
     37 H4          3.6177   -6.9272   -0.7354 H         1 <0>         0.0598
     38 H5          5.2759   -7.1261   -0.1196 H         1 <0>         0.0603
     39 H6          5.9890   -5.1213   -1.3926 H         1 <0>         0.0678
     40 H7          5.2881   -6.3489   -2.4743 H         1 <0>         0.0760
     41 H8          3.2156   -5.9591   -3.6041 H         1 <0>         0.1236
     42 H9          1.5365   -4.3304   -4.3678 H         1 <0>         0.1214
     43 H10         1.4193   -2.0997   -3.3342 H         1 <0>         0.1231
     44 H11         2.9819   -1.4921   -1.5329 H         1 <0>         0.1357
     45 H12         5.1809   -3.7309    0.0920 H         1 <0>         0.4211
     46 H13         5.0326    1.1392   -1.9434 H         1 <0>         0.1701
     47 H14         6.3867    2.0922    2.7210 H         1 <0>         0.1552
     48 H15         8.7757   -1.4257    2.0562 H         1 <0>         0.1804
     49 H16         9.9414    1.3169    5.6295 H         1 <0>         0.3965
     50 H17         9.9333    4.6449    5.3725 H         1 <0>         0.0579
     51 H18        10.4940    4.9882    7.0265 H         1 <0>         0.0586
     52 H19        12.3041    4.4315    5.5708 H         1 <0>         0.3810
     53 H20        11.5925    1.2768    6.6613 H         1 <0>         0.1207
     54 H21        12.7672    0.1928    8.5344 H         1 <0>         0.1230
     55 H22        12.1198    0.7036   10.8545 H         1 <0>         0.1229
     56 H23        10.2983    2.2990   11.3017 H         1 <0>         0.1248
     57 H24         9.1292    3.3893    9.4288 H         1 <0>         0.1243
     58 H25         5.8896    2.7677    0.6817 H         1 <0>         0.0714
     59 H26         7.5755    2.2487    0.4435 H         1 <0>         0.0719
     60 H27         6.5802    2.7112   -0.9578 H         1 <0>         0.0670
@<TRIPOS>BOND
     1    1    2 1
     2    1   36 1
     3    1   37 1
     4    1   38 1
     5    2    3 1
     6    2   39 1
     7    2   40 1
     8    3    8 ar
     9    3    4 ar
    10    4    5 ar
    11    4   41 1
    12    5    6 ar
    13    5   42 1
    14    6    7 ar
    15    6   43 1
    16    7    8 ar
    17    7   44 1
    18    8    9 1
    19    9   10 1
    20    9   45 1
    21   10   15 ar
    22   10   11 ar
    23   11   12 ar
    24   12   13 ar
    25   12   46 1
    26   13   14 ar
    27   13   35 1
    28   14   15 ar
    29   14   16 1
    30   16   21 2
    31   16   17 1
    32   17   18 2
    33   17   47 1
    34   18   19 1
    35   18   22 1
    36   19   20 1
    37   19   21 1
    38   21   48 1
    39   22   23 2
    40   22   24 am
    41   24   25 1
    42   24   49 1
    43   25   26 1
    44   25   27 1
    45   25   29 1
    46   27   28 1
    47   27   50 1
    48   27   51 1
    49   28   52 1
    50   29   34 ar
    51   29   30 ar
    52   30   31 ar
    53   30   53 1
    54   31   32 ar
    55   31   54 1
    56   32   33 ar
    57   32   55 1
    58   33   34 ar
    59   33   56 1
    60   34   57 1
    61   35   58 1
    62   35   59 1
    63   35   60 1
@<TRIPOS>MOLECULE
CHEMBL571056
   60    63     0     0     0
SMALL
USER_CHARGES

@<TRIPOS>ATOM
      1 C1         -2.4992   -6.4817   -3.6695 C.3       1 <0>        -0.1493
      2 C2         -3.8390   -5.7552   -3.5347 C.3       1 <0>        -0.0852
      3 C3         -3.7552   -4.7504   -2.4147 C.ar      1 <0>        -0.1143
      4 C4         -4.1819   -5.0919   -1.1461 C.ar      1 <0>        -0.0981
      5 C5         -4.1049   -4.1708   -0.1178 C.ar      1 <0>        -0.1369
      6 C6         -3.6006   -2.9051   -0.3554 C.ar      1 <0>        -0.1042
      7 C7         -3.1723   -2.5572   -1.6212 C.ar      1 <0>        -0.1142
      8 C8         -3.2434   -3.4820   -2.6554 C.ar      1 <0>         0.1696
      9 N1         -2.8056   -3.1349   -3.9370 N.pl3     1 <0>        -0.6371
     10 C9         -2.9304   -1.8287   -4.3815 C.ar      1 <0>         0.5543
     11 N2         -3.5653   -0.9465   -3.6231 N.ar      1 <0>        -0.5540
     12 C10        -3.7053    0.3114   -4.0121 C.ar      1 <0>         0.1869
     13 C11        -3.1797    0.7059   -5.2286 C.ar      1 <0>        -0.2285
     14 C12        -2.5152   -0.2464   -6.0074 C.ar      1 <0>         0.2951
     15 N3         -2.4079   -1.4925   -5.5503 N.ar      1 <0>        -0.5562
     16 C13        -1.9344    0.1266   -7.3186 C.2       1 <0>        -0.1526
     17 C14        -1.1639    1.2740   -7.5962 C.2       1 <0>        -0.0645
     18 C15        -0.8344    1.2251   -8.9204 C.2       1 <0>        -0.0580
     19 N4         -1.3815    0.0815   -9.4578 N.pl3     1 <0>        -0.5309
     20 H1         -1.3009   -0.2000  -10.3825 H         1 <0>         0.4202
     21 C16        -2.0417   -0.5863   -8.4927 C.2       1 <0>         0.0844
     22 C17        -0.0351    2.2195   -9.6455 C.2       1 <0>         0.5934
     23 O1          0.3977    3.1954   -9.0615 O.2       1 <0>        -0.5239
     24 N5          0.2195    2.0520  -10.9584 N.am      1 <0>        -0.7196
     25 C18         1.0174    3.0448  -11.6823 C.3       1 <0>         0.1937
     26 H2          1.7874    3.4436  -11.0219 H         1 <0>         0.1152
     27 C19         0.1100    4.1830  -12.1535 C.3       1 <0>         0.0672
     28 O2         -0.8266    3.6811  -13.1090 O.3       1 <0>        -0.5678
     29 C20         1.6672    2.3935  -12.8759 C.ar      1 <0>        -0.0802
     30 C21         0.9607    1.4776  -13.6334 C.ar      1 <0>        -0.0878
     31 C22         1.5561    0.8798  -14.7283 C.ar      1 <0>        -0.1063
     32 C23         2.8584    1.1970  -15.0662 C.ar      1 <0>        -0.1059
     33 C24         3.5657    2.1132  -14.3086 C.ar      1 <0>        -0.0331
     34 C25         2.9671    2.7159  -13.2163 C.ar      1 <0>        -0.0994
     35 Cl1         5.2013    2.5120  -14.7324 Cl        1 <0>        -0.0648
     36 C26        -3.3202    2.1290   -5.7042 C.3       1 <0>        -0.0966
     37 H3         -2.5599   -7.2084   -4.4796 H         1 <0>         0.0603
     38 H4         -1.7140   -5.7581   -3.8885 H         1 <0>         0.0512
     39 H5         -2.2694   -6.9961   -2.7364 H         1 <0>         0.0598
     40 H6         -4.0688   -5.2408   -4.4678 H         1 <0>         0.0678
     41 H7         -4.6242   -6.4787   -3.3157 H         1 <0>         0.0760
     42 H8         -4.5766   -6.0794   -0.9574 H         1 <0>         0.1236
     43 H9         -4.4396   -4.4403    0.8730 H         1 <0>         0.1214
     44 H10        -3.5421   -2.1878    0.4499 H         1 <0>         0.1231
     45 H11        -2.7786   -1.5687   -1.8060 H         1 <0>         0.1356
     46 H12        -2.4144   -3.8085   -4.5150 H         1 <0>         0.4211
     47 H13        -4.2249    1.0216   -3.3860 H         1 <0>         0.1701
     48 H14        -0.8870    2.0465   -6.8941 H         1 <0>         0.1554
     49 H15        -2.5681   -1.5209   -8.6183 H         1 <0>         0.1806
     50 H16        -0.1256    1.2741  -11.4240 H         1 <0>         0.3968
     51 H17        -0.4276    4.5961  -11.3001 H         1 <0>         0.0602
     52 H18         0.7157    4.9636  -12.6138 H         1 <0>         0.0600
     53 H19        -1.4353    4.3498  -13.4517 H         1 <0>         0.3826
     54 H20        -0.0566    1.2290  -13.3694 H         1 <0>         0.1283
     55 H21         1.0037    0.1646  -15.3196 H         1 <0>         0.1343
     56 H22         3.3237    0.7293  -15.9213 H         1 <0>         0.1350
     57 H23         3.5174    3.4345  -12.6271 H         1 <0>         0.1359
     58 H24        -2.4211    2.6887   -5.4464 H         1 <0>         0.0714
     59 H25        -3.4569    2.1388   -6.7855 H         1 <0>         0.0718
     60 H26        -4.1844    2.5887   -5.2245 H         1 <0>         0.0671
@<TRIPOS>BOND
     1    1    2 1
     2    1   37 1
     3    1   38 1
     4    1   39 1
     5    2    3 1
     6    2   40 1
     7    2   41 1
     8    3    8 ar
     9    3    4 ar
    10    4    5 ar
    11    4   42 1
    12    5    6 ar
    13    5   43 1
    14    6    7 ar
    15    6   44 1
    16    7    8 ar
    17    7   45 1
    18    8    9 1
    19    9   10 1
    20    9   46 1
    21   10   15 ar
    22   10   11 ar
    23   11   12 ar
    24   12   13 ar
    25   12   47 1
    26   13   14 ar
    27   13   36 1
    28   14   15 ar
    29   14   16 1
    30   16   21 2
    31   16   17 1
    32   17   18 2
    33   17   48 1
    34   18   19 1
    35   18   22 1
    36   19   20 1
    37   19   21 1
    38   21   49 1
    39   22   23 2
    40   22   24 am
    41   24   25 1
    42   24   50 1
    43   25   26 1
    44   25   27 1
    45   25   29 1
    46   27   28 1
    47   27   51 1
    48   27   52 1
    49   28   53 1
    50   29   34 ar
    51   29   30 ar
    52   30   31 ar
    53   30   54 1
    54   31   32 ar
    55   31   55 1
    56   32   33 ar
    57   32   56 1
    58   33   34 ar
    59   33   35 1
    60   34   57 1
    61   36   58 1
    62   36   59 1
    63   36   60 1
@<TRIPOS>MOLECULE
CHEMBL380946
   57    60     0     0     0
SMALL
USER_CHARGES

@<TRIPOS>ATOM
      1 C1         -0.0187    1.5258    0.0104 C.3       1 <0>        -0.1535
      2 C2          0.0021   -0.0041    0.0020 C.3       1 <0>        -0.1217
      3 C3         -1.4333   -0.5336    0.0129 C.3       1 <0>        -0.1327
      4 C4         -1.4126   -2.0635    0.0045 C.3       1 <0>         0.1361
      5 N1         -2.7870   -2.5706    0.0149 N.am      1 <0>        -0.7427
      6 C5         -3.0152   -3.8988    0.0099 C.2       1 <0>         0.7344
      7 O1         -2.0805   -4.6763   -0.0032 O.2       1 <0>        -0.5784
      8 N2         -4.2797   -4.3654    0.0195 N.am      1 <0>        -0.6317
      9 C6         -4.6876   -5.7736    0.0217 C.3       1 <0>         0.2220
     10 C7         -6.1941   -5.8156    0.0340 C.2       1 <0>        -0.3120
     11 C8         -6.6781   -4.5061    0.0390 C.2       1 <0>         0.0677
     12 N3         -7.9877   -4.5524    0.0503 N.2       1 <0>        -0.2486
     13 N4         -8.3822   -5.8959    0.0529 N.pl3     1 <0>        -0.4529
     14 H1         -9.2955   -6.2226    0.0603 H         1 <0>         0.4558
     15 C9         -7.2648   -6.6574    0.0428 C.2       1 <0>         0.3605
     16 N5         -7.2174   -8.0514    0.0411 N.am      1 <0>        -0.6439
     17 C10        -8.3610   -8.7645    0.0506 C.2       1 <0>         0.5244
     18 O2         -9.4314   -8.1942    0.0606 O.2       1 <0>        -0.5137
     19 C11        -8.3098  -10.2707    0.0488 C.3       1 <0>        -0.0641
     20 H2         -7.7918  -10.6155   -0.8461 H         1 <0>         0.1167
     21 C12        -7.5606  -10.7570    1.2911 C.3       1 <0>        -0.1470
     22 C13        -9.7126  -10.8210    0.0608 C.ar      1 <0>        -0.0703
     23 C14       -10.5656  -10.5034    1.1163 C.ar      1 <0>        -0.0855
     24 C15       -11.8382  -10.9841    1.1578 C.ar      1 <0>        -0.1054
     25 C16       -12.3025  -11.8130    0.1222 C.ar      1 <0>        -0.0468
     26 C17       -13.6101  -12.3279    0.1301 C.ar      1 <0>        -0.1077
     27 C18       -14.0252  -13.1272   -0.8901 C.ar      1 <0>        -0.1141
     28 C19       -13.1723  -13.4446   -1.9458 C.ar      1 <0>        -0.1166
     29 C20       -11.8996  -12.9643   -1.9870 C.ar      1 <0>        -0.1055
     30 C21       -11.4353  -12.1356   -0.9512 C.ar      1 <0>        -0.0527
     31 C22       -10.1294  -11.6162   -0.9620 C.ar      1 <0>        -0.0929
     32 C23        -5.5043   -3.5595    0.0360 C.3       1 <0>         0.1944
     33 H3          1.0039    1.9031    0.0027 H         1 <0>         0.0565
     34 H4         -0.5459    1.8868   -0.8726 H         1 <0>         0.0546
     35 H5         -0.5289    1.8773    0.9072 H         1 <0>         0.0546
     36 H6          0.5123   -0.3556   -0.8948 H         1 <0>         0.0660
     37 H7          0.5293   -0.3651    0.8851 H         1 <0>         0.0660
     38 H8         -1.9435   -0.1821    0.9097 H         1 <0>         0.0698
     39 H9         -1.9605   -0.1726   -0.8702 H         1 <0>         0.0698
     40 H10        -0.9024   -2.4150   -0.8923 H         1 <0>         0.0686
     41 H11        -0.8854   -2.4246    0.8875 H         1 <0>         0.0686
     42 H12        -3.5327   -1.9503    0.0253 H         1 <0>         0.3977
     43 H13        -4.3116   -6.2684   -0.8738 H         1 <0>         0.0748
     44 H14        -4.2970   -6.2698    0.9102 H         1 <0>         0.0746
     45 H15        -6.3614   -8.5075    0.0331 H         1 <0>         0.4308
     46 H16        -8.0785  -10.4121    2.1860 H         1 <0>         0.0677
     47 H17        -7.5235  -11.8463    1.2898 H         1 <0>         0.0805
     48 H18        -6.5459  -10.3589    1.2824 H         1 <0>         0.0683
     49 H19       -10.2113   -9.8666    1.9134 H         1 <0>         0.1191
     50 H20       -12.4877  -10.7301    1.9824 H         1 <0>         0.1280
     51 H21       -14.2820  -12.0908    0.9418 H         1 <0>         0.1275
     52 H22       -15.0305  -13.5219   -0.8815 H         1 <0>         0.1239
     53 H23       -13.5266  -14.0814   -2.7428 H         1 <0>         0.1240
     54 H24       -11.2498  -13.2188   -2.8112 H         1 <0>         0.1271
     55 H25        -9.4589  -11.8501   -1.7757 H         1 <0>         0.1279
     56 H26        -5.5257   -2.9387    0.9316 H         1 <0>         0.0912
     57 H27        -5.5434   -2.9290   -0.8522 H         1 <0>         0.0909
@<TRIPOS>BOND
     1    1    2 1
     2    1   33 1
     3    1   34 1
     4    1   35 1
     5    2    3 1
     6    2   36 1
     7    2   37 1
     8    3    4 1
     9    3   38 1
    10    3   39 1
    11    4    5 1
    12    4   40 1
    13    4   41 1
    14    5    6 am
    15    5   42 1
    16    6    7 2
    17    6    8 am
    18    8   32 1
    19    8    9 1
    20    9   10 1
    21    9   43 1
    22    9   44 1
    23   10   15 2
    24   10   11 1
    25   11   12 2
    26   11   32 1
    27   12   13 1
    28   13   14 1
    29   13   15 1
    30   15   16 1
    31   16   17 am
    32   16   45 1
    33   17   18 2
    34   17   19 1
    35   19   20 1
    36   19   21 1
    37   19   22 1
    38   21   46 1
    39   21   47 1
    40   21   48 1
    41   22   31 ar
    42   22   23 ar
    43   23   24 ar
    44   23   49 1
    45   24   25 ar
    46   24   50 1
    47   25   30 ar
    48   25   26 ar
    49   26   27 ar
    50   26   51 1
    51   27   28 ar
    52   27   52 1
    53   28   29 ar
    54   28   53 1
    55   29   30 ar
    56   29   54 1
    57   30   31 ar
    58   31   55 1
    59   32   56 1
    60   32   57 1
@<TRIPOS>MOLECULE
CHEMBL380946__1
   57    60     0     0     0
SMALL
USER_CHARGES

@<TRIPOS>ATOM
      1 C1         -0.0187    1.5258    0.0104 C.3       1 <0>        -0.1535
      2 C2          0.0021   -0.0041    0.0020 C.3       1 <0>        -0.1219
      3 C3         -1.4333   -0.5336    0.0129 C.3       1 <0>        -0.1322
      4 C4         -1.4126   -2.0635    0.0045 C.3       1 <0>         0.1355
      5 N1         -2.7870   -2.5706    0.0149 N.am      1 <0>        -0.7426
      6 C5         -3.0152   -3.8988    0.0099 C.2       1 <0>         0.7346
      7 O1         -2.0805   -4.6763   -0.0032 O.2       1 <0>        -0.5743
      8 N2         -4.2797   -4.3654    0.0195 N.am      1 <0>        -0.6316
      9 C6         -4.6987   -5.7717    0.0219 C.3       1 <0>         0.2113
     10 C7         -6.2064   -5.7953    0.0342 C.2       1 <0>        -0.2809
     11 C8         -6.6732   -4.5295    0.0389 C.2       1 <0>         0.0714
     12 N3         -8.0243   -4.5853    0.0499 N.pl3     1 <0>        -0.4427
     13 N4         -8.4023   -5.9334    0.0520 N.2       1 <0>        -0.2497
     14 H1         -8.6262   -3.8246    0.0556 H         1 <0>         0.4454
     15 C9         -7.3130   -6.6637    0.0426 C.2       1 <0>         0.3385
     16 N5         -7.2606   -8.0643    0.0407 N.am      1 <0>        -0.6400
     17 C10        -8.4018   -8.7813    0.0495 C.2       1 <0>         0.5108
     18 O2         -9.4741   -8.2145    0.0591 O.2       1 <0>        -0.4748
     19 C11        -8.3454  -10.2873    0.0475 C.3       1 <0>        -0.0661
     20 H2         -7.8259  -10.6302   -0.8472 H         1 <0>         0.1114
     21 C12        -7.5952  -10.7712    1.2900 C.3       1 <0>        -0.1452
     22 C13        -9.7464  -10.8424    0.0587 C.ar      1 <0>        -0.0648
     23 C14       -10.6010  -10.5278    1.1139 C.ar      1 <0>        -0.0819
     24 C15       -11.8720  -11.0128    1.1547 C.ar      1 <0>        -0.1077
     25 C16       -12.3330  -11.8431    0.1188 C.ar      1 <0>        -0.0475
     26 C17       -13.6389  -12.3624    0.1259 C.ar      1 <0>        -0.1073
     27 C18       -14.0508  -13.1630   -0.8946 C.ar      1 <0>        -0.1162
     28 C19       -13.1963  -13.4772   -1.9499 C.ar      1 <0>        -0.1184
     29 C20       -11.9252  -12.9926   -1.9904 C.ar      1 <0>        -0.1053
     30 C21       -11.4641  -12.1626   -0.9543 C.ar      1 <0>        -0.0524
     31 C22       -10.1600  -11.6388   -0.9644 C.ar      1 <0>        -0.0961
     32 C23        -5.5116   -3.5682    0.0360 C.3       1 <0>         0.1815
     33 H3          1.0039    1.9031    0.0027 H         1 <0>         0.0570
     34 H4         -0.5459    1.8868   -0.8726 H         1 <0>         0.0545
     35 H5         -0.5289    1.8773    0.9072 H         1 <0>         0.0545
     36 H6          0.5123   -0.3556   -0.8948 H         1 <0>         0.0664
     37 H7          0.5293   -0.3651    0.8851 H         1 <0>         0.0664
     38 H8         -1.9435   -0.1821    0.9097 H         1 <0>         0.0694
     39 H9         -1.9605   -0.1726   -0.8702 H         1 <0>         0.0694
     40 H10        -0.9024   -2.4150   -0.8923 H         1 <0>         0.0692
     41 H11        -0.8854   -2.4246    0.8875 H         1 <0>         0.0693
     42 H12        -3.5327   -1.9503    0.0253 H         1 <0>         0.3965
     43 H13        -4.3281   -6.2698   -0.8740 H         1 <0>         0.0778
     44 H14        -4.3119   -6.2716    0.9099 H         1 <0>         0.0778
     45 H15        -6.4030   -8.5175    0.0331 H         1 <0>         0.4224
     46 H16        -8.1147  -10.4282    2.1848 H         1 <0>         0.0662
     47 H17        -7.5544  -11.8604    1.2886 H         1 <0>         0.0765
     48 H18        -6.5818  -10.3697    1.2820 H         1 <0>         0.0667
     49 H19       -10.2492   -9.8899    1.9112 H         1 <0>         0.1197
     50 H20       -12.5228  -10.7612    1.9790 H         1 <0>         0.1270
     51 H21       -14.3119  -12.1277    0.9373 H         1 <0>         0.1265
     52 H22       -15.0547  -13.5610   -0.8865 H         1 <0>         0.1228
     53 H23       -13.5480  -14.1152   -2.7473 H         1 <0>         0.1228
     54 H24       -11.2741  -13.2449   -2.8144 H         1 <0>         0.1264
     55 H25        -9.4883  -11.8702   -1.7778 H         1 <0>         0.1272
     56 H26        -5.5393   -2.9484    0.9322 H         1 <0>         0.0902
     57 H27        -5.5570   -2.9387   -0.8526 H         1 <0>         0.0899
@<TRIPOS>BOND
     1    1    2 1
     2    1   33 1
     3    1   34 1
     4    1   35 1
     5    2    3 1
     6    2   36 1
     7    2   37 1
     8    3    4 1
     9    3   38 1
    10    3   39 1
    11    4    5 1
    12    4   40 1
    13    4   41 1
    14    5    6 am
    15    5   42 1
    16    6    7 2
    17    6    8 am
    18    8   32 1
    19    8    9 1
    20    9   43 1
    21    9   44 1
    22    9   10 1
    23   10   15 1
    24   10   11 2
    25   11   32 1
    26   11   12 1
    27   12   13 1
    28   12   14 1
    29   13   15 2
    30   15   16 1
    31   16   17 am
    32   16   45 1
    33   17   18 2
    34   17   19 1
    35   19   20 1
    36   19   21 1
    37   19   22 1
    38   21   46 1
    39   21   47 1
    40   21   48 1
    41   22   31 ar
    42   22   23 ar
    43   23   24 ar
    44   23   49 1
    45   24   25 ar
    46   24   50 1
    47   25   30 ar
    48   25   26 ar
    49   26   27 ar
    50   26   51 1
    51   27   28 ar
    52   27   52 1
    53   28   29 ar
    54   28   53 1
    55   29   30 ar
    56   29   54 1
    57   30   31 ar
    58   31   55 1
    59   32   56 1
    60   32   57 1
@<TRIPOS>MOLECULE
CHEMBL78779
   44    46     0     0     0
SMALL
USER_CHARGES

@<TRIPOS>ATOM
      1 C1         -0.0945    1.4092   -0.3808 C.3       1 <0>        -0.1348
      2 C2          0.1586   -0.0755   -0.3303 C.2       1 <0>         0.0310
      3 C3          0.1951   -0.8745   -1.5572 C.ar      1 <0>        -0.1438
      4 C4         -0.0038   -0.2818   -2.8094 C.ar      1 <0>        -0.0407
      5 C5          0.0359   -1.0495   -3.9370 C.ar      1 <0>        -0.1392
      6 C6          0.2730   -2.4198   -3.8500 C.ar      1 <0>         0.1635
      7 C7          0.4715   -3.0230   -2.6193 C.ar      1 <0>        -0.1314
      8 C8          0.4351   -2.2578   -1.4630 C.ar      1 <0>         0.1619
      9 O1          0.6275   -2.8258   -0.2532 O.3       1 <0>        -0.2667
     10 C9          0.5959   -2.0992    0.8749 C.2       1 <0>         0.5173
     11 O2          0.7750   -2.6549    1.9438 O.2       1 <0>        -0.4530
     12 C10         0.3647   -0.7081    0.8538 C.2       1 <0>        -0.2125
     13 C11         0.3425    0.0736    2.1420 C.3       1 <0>        -0.0229
     14 C12         1.7497    0.4570    2.5212 C.ar      1 <0>        -0.0939
     15 C13         2.4831   -0.3554    3.3658 C.ar      1 <0>        -0.0749
     16 C14         3.7738   -0.0051    3.7139 C.ar      1 <0>        -0.1520
     17 C15         4.3324    1.1600    3.2164 C.ar      1 <0>         0.0978
     18 C16         3.5969    1.9730    2.3707 C.ar      1 <0>        -0.1542
     19 C17         2.3082    1.6179    2.0198 C.ar      1 <0>        -0.0884
     20 F1          5.5940    1.5037    3.5564 F         1 <0>        -0.1394
     21 O3          0.3094   -3.1702   -4.9814 O.3       1 <0>        -0.3037
     22 C18         1.4086   -3.0932   -5.7562 C.2       1 <0>         0.6473
     23 O4          2.3681   -2.4456   -5.3868 O.2       1 <0>        -0.5482
     24 N1          1.4441   -3.7344   -6.9411 N.am      1 <0>        -0.5966
     25 C19         2.6396   -3.6506   -7.7838 C.3       1 <0>         0.0980
     26 C20         0.2873   -4.5152   -7.3864 C.3       1 <0>         0.0775
     27 H1          0.8575    1.9402   -0.3836 H         1 <0>         0.0940
     28 H2         -0.6489    1.6527   -1.2872 H         1 <0>         0.0830
     29 H3         -0.6751    1.7088    0.4917 H         1 <0>         0.0909
     30 H4         -0.1884    0.7798   -2.8830 H         1 <0>         0.1504
     31 H5         -0.1180   -0.5920   -4.9032 H         1 <0>         0.1419
     32 H6          0.6541   -4.0858   -2.5600 H         1 <0>         0.1538
     33 H7         -0.2565    0.9747    2.0099 H         1 <0>         0.0957
     34 H8         -0.0924   -0.5392    2.9315 H         1 <0>         0.0960
     35 H9          2.0470   -1.2641    3.7539 H         1 <0>         0.1395
     36 H10         4.3464   -0.6398    4.3739 H         1 <0>         0.1367
     37 H11         4.0315    2.8822    1.9823 H         1 <0>         0.1362
     38 H12         1.7359    2.2496    1.3565 H         1 <0>         0.1322
     39 H13         3.3204   -4.4632   -7.5303 H         1 <0>         0.0634
     40 H14         2.3517   -3.7315   -8.8320 H         1 <0>         0.0824
     41 H15         3.1361   -2.6949   -7.6161 H         1 <0>         0.0828
     42 H16        -0.3840   -3.8755   -7.9594 H         1 <0>         0.0632
     43 H17         0.6254   -5.3406   -8.0129 H         1 <0>         0.0798
     44 H18        -0.2403   -4.9104   -6.5183 H         1 <0>         0.0802
@<TRIPOS>BOND
     1    1    2 1
     2    1   27 1
     3    1   28 1
     4    1   29 1
     5    2   12 2
     6    2    3 1
     7    3    8 ar
     8    3    4 ar
     9    4    5 ar
    10    4   30 1
    11    5    6 ar
    12    5   31 1
    13    6    7 ar
    14    6   21 1
    15    7    8 ar
    16    7   32 1
    17    8    9 1
    18    9   10 1
    19   10   11 2
    20   10   12 1
    21   12   13 1
    22   13   14 1
    23   13   33 1
    24   13   34 1
    25   14   19 ar
    26   14   15 ar
    27   15   16 ar
    28   15   35 1
    29   16   17 ar
    30   16   36 1
    31   17   18 ar
    32   17   20 1
    33   18   19 ar
    34   18   37 1
    35   19   38 1
    36   21   22 1
    37   22   23 2
    38   22   24 am
    39   24   25 1
    40   24   26 1
    41   25   39 1
    42   25   40 1
    43   25   41 1
    44   26   42 1
    45   26   43 1
    46   26   44 1
@<TRIPOS>MOLECULE
CHEMBL569869
   54    57     0     0     0
SMALL
USER_CHARGES

@<TRIPOS>ATOM
      1 C1         -0.3527    1.4878    0.0468 C.3       1 <0>        -0.1009
      2 C2         -0.2414   -0.0149    0.0286 C.ar      1 <0>        -0.2408
      3 C3         -0.4511   -0.7258   -1.1386 C.ar      1 <0>         0.1906
      4 N1         -0.3458   -2.0455   -1.1214 N.ar      1 <0>        -0.5571
      5 C4         -0.0433   -2.6914   -0.0044 C.ar      1 <0>         0.5595
      6 N2          0.1650   -2.0504    1.1349 N.ar      1 <0>        -0.5538
      7 C5          0.0821   -0.7225    1.1904 C.ar      1 <0>         0.2982
      8 C6          0.3223   -0.0063    2.4652 C.2       1 <0>        -0.1530
      9 C7         -0.0086   -0.4639    3.7569 C.2       1 <0>        -0.0514
     10 C8          0.3867    0.5015    4.6378 C.2       1 <0>        -0.0612
     11 N3          0.9486    1.5340    3.9208 N.pl3     1 <0>        -0.5292
     12 H1          1.3135    2.3490    4.2997 H         1 <0>         0.4210
     13 C9          0.9160    1.2284    2.6098 C.2       1 <0>         0.0713
     14 C10         0.2375    0.4484    6.0968 C.2       1 <0>         0.5933
     15 O1         -0.2785   -0.5212    6.6207 O.2       1 <0>        -0.5231
     16 N4          0.6720    1.4734    6.8564 N.am      1 <0>        -0.7197
     17 C11         0.5231    1.4203    8.3128 C.3       1 <0>         0.1925
     18 H2          0.6519    0.3931    8.6540 H         1 <0>         0.1155
     19 C12        -0.8714    1.9156    8.7013 C.3       1 <0>         0.0671
     20 O2         -0.9989    3.2970    8.3583 O.3       1 <0>        -0.5676
     21 C13         1.5653    2.2980    8.9567 C.ar      1 <0>        -0.0638
     22 C14         1.8770    3.5239    8.3984 C.ar      1 <0>        -0.1030
     23 C15         2.8328    4.3300    8.9878 C.ar      1 <0>        -0.0895
     24 C16         3.4783    3.9110   10.1359 C.ar      1 <0>        -0.1496
     25 C17         3.1670    2.6837   10.6958 C.ar      1 <0>         0.1016
     26 C18         2.2050    1.8797   10.1078 C.ar      1 <0>        -0.1432
     27 F1          3.7977    2.2730   11.8177 F         1 <0>        -0.1369
     28 N5          0.0571   -4.0729   -0.0296 N.pl3     1 <0>        -0.6424
     29 C19        -0.0448   -4.7591   -1.2435 C.ar      1 <0>         0.1663
     30 C20         0.5392   -4.2358   -2.3900 C.ar      1 <0>        -0.1105
     31 C21         0.4371   -4.9165   -3.5873 C.ar      1 <0>        -0.1015
     32 C22        -0.2455   -6.1177   -3.6456 C.ar      1 <0>        -0.1369
     33 C23        -0.8284   -6.6412   -2.5061 C.ar      1 <0>        -0.1001
     34 C24        -0.7252   -5.9685   -1.3043 C.ar      1 <0>        -0.1466
     35 H3          0.6189    1.9269   -0.1800 H         1 <0>         0.0692
     36 H4         -1.0792    1.8074   -0.7003 H         1 <0>         0.0696
     37 H5         -0.6782    1.8161    1.0339 H         1 <0>         0.0731
     38 H6         -0.6985   -0.2100   -2.0547 H         1 <0>         0.1692
     39 H7         -0.4849   -1.4014    4.0033 H         1 <0>         0.1551
     40 H8          1.2901    1.8472    1.8076 H         1 <0>         0.1845
     41 H9          1.0833    2.2463    6.4388 H         1 <0>         0.3969
     42 H10        -1.6246    1.3374    8.1661 H         1 <0>         0.0604
     43 H11        -1.0145    1.7931    9.7749 H         1 <0>         0.0602
     44 H12        -1.8602    3.6786    8.5768 H         1 <0>         0.3826
     45 H13         1.3737    3.8518    7.5009 H         1 <0>         0.1291
     46 H14         3.0755    5.2873    8.5509 H         1 <0>         0.1352
     47 H15         4.2256    4.5407   10.5959 H         1 <0>         0.1371
     48 H16         1.9581    0.9240   10.5462 H         1 <0>         0.1382
     49 H17         0.1980   -4.5641    0.7949 H         1 <0>         0.4232
     50 H18         1.0721   -3.2976   -2.3452 H         1 <0>         0.1263
     51 H19         0.8906   -4.5100   -4.4792 H         1 <0>         0.1238
     52 H20        -0.3238   -6.6480   -4.5831 H         1 <0>         0.1222
     53 H21        -1.3614   -7.5793   -2.5551 H         1 <0>         0.1252
     54 H22        -1.1769   -6.3801   -0.4138 H         1 <0>         0.1239
@<TRIPOS>BOND
     1    1    2 1
     2    1   35 1
     3    1   36 1
     4    1   37 1
     5    2    7 ar
     6    2    3 ar
     7    3    4 ar
     8    3   38 1
     9    4    5 ar
    10    5    6 ar
    11    5   28 1
    12    6    7 ar
    13    7    8 1
    14    8   13 2
    15    8    9 1
    16    9   10 2
    17    9   39 1
    18   10   11 1
    19   10   14 1
    20   11   12 1
    21   11   13 1
    22   13   40 1
    23   14   15 2
    24   14   16 am
    25   16   17 1
    26   16   41 1
    27   17   18 1
    28   17   19 1
    29   17   21 1
    30   19   20 1
    31   19   42 1
    32   19   43 1
    33   20   44 1
    34   21   26 ar
    35   21   22 ar
    36   22   23 ar
    37   22   45 1
    38   23   24 ar
    39   23   46 1
    40   24   25 ar
    41   24   47 1
    42   25   26 ar
    43   25   27 1
    44   26   48 1
    45   28   29 1
    46   28   49 1
    47   29   34 ar
    48   29   30 ar
    49   30   31 ar
    50   30   50 1
    51   31   32 ar
    52   31   51 1
    53   32   33 ar
    54   32   52 1
    55   33   34 ar
    56   33   53 1
    57   34   54 1
@<TRIPOS>MOLECULE
CHEMBL219849
   48    51     0     0     0
SMALL
USER_CHARGES

@<TRIPOS>ATOM
      1 C1          0.4585    0.4884    0.9561 C.ar      1 <0>        -0.1053
      2 C2          1.6076    1.2518    1.0011 C.ar      1 <0>        -0.0997
      3 C3          2.4549    1.2978   -0.1049 C.ar      1 <0>         0.0178
      4 C4          2.1363    0.5716   -1.2514 C.ar      1 <0>        -0.1041
      5 C5          0.9840   -0.1888   -1.2854 C.ar      1 <0>        -0.0324
      6 C6          0.1465   -0.2303   -0.1835 C.ar      1 <0>        -0.1157
      7 Cl1         0.5845   -1.0937   -2.7121 Cl        1 <0>        -0.0711
      8 C7          3.6902    2.1165   -0.0621 C.2       1 <0>        -0.2041
      9 C8          4.0508    3.1299   -0.9685 C.2       1 <0>         0.0722
     10 N1          5.2047    3.6215   -0.6039 N.2       1 <0>        -0.2873
     11 N2          5.6429    2.9556    0.5466 N.pl3     1 <0>        -0.4648
     12 H1          6.4701    3.1267    1.0233 H         1 <0>         0.4422
     13 C9          4.7029    2.0294    0.8832 C.2       1 <0>         0.1923
     14 C10         4.7529    1.1045    2.0356 C.2       1 <0>        -0.1452
     15 C11         5.0814    1.4409    3.3654 C.2       1 <0>        -0.0779
     16 C12         5.0056    0.2925    4.1007 C.2       1 <0>        -0.0511
     17 N3          4.6408   -0.7344    3.2595 N.pl3     1 <0>        -0.5279
     18 H2          4.5146   -1.6594    3.5227 H         1 <0>         0.4217
     19 C13         4.4814   -0.2472    2.0125 C.2       1 <0>         0.0824
     20 C14         5.2686    0.1735    5.5394 C.2       1 <0>         0.5922
     21 O1          5.5864    1.1561    6.1831 O.2       1 <0>        -0.5237
     22 N4          5.1581   -1.0240    6.1478 N.am      1 <0>        -0.7186
     23 C15         5.4207   -1.1428    7.5842 C.3       1 <0>         0.1928
     24 C16         6.9218   -1.3287    7.8146 C.3       1 <0>         0.0671
     25 O2          7.3400   -2.5728    7.2497 O.3       1 <0>        -0.5676
     26 C17         4.6770   -2.3326    8.1341 C.ar      1 <0>        -0.0646
     27 C18         4.6141   -3.5056    7.4049 C.ar      1 <0>        -0.1030
     28 C19         3.9324   -4.5977    7.9079 C.ar      1 <0>        -0.0892
     29 C20         3.3122   -4.5181    9.1406 C.ar      1 <0>        -0.1490
     30 C21         3.3744   -3.3441    9.8716 C.ar      1 <0>         0.1018
     31 C22         4.0629   -2.2526    9.3693 C.ar      1 <0>        -0.1431
     32 F1          2.7682   -3.2650   11.0764 F         1 <0>        -0.1367
     33 H3         -0.1960    0.4488    1.8142 H         1 <0>         0.1305
     34 H4          1.8497    1.8128    1.8916 H         1 <0>         0.1270
     35 H5          2.7889    0.6038   -2.1113 H         1 <0>         0.1339
     36 H6         -0.7536   -0.8264   -0.2139 H         1 <0>         0.1310
     37 H7          3.4713    3.4477   -1.8226 H         1 <0>         0.1869
     38 H8          5.3438    2.4220    3.7330 H         1 <0>         0.1532
     39 H9          4.1925   -0.8188    1.1429 H         1 <0>         0.1805
     40 H10         4.9048   -1.8072    5.6347 H         1 <0>         0.3974
     41 H11         5.0845   -0.2383    8.0910 H         1 <0>         0.1158
     42 H12         7.4661   -0.5126    7.3394 H         1 <0>         0.0600
     43 H13         7.1279   -1.3281    8.8850 H         1 <0>         0.0605
     44 H14         8.2829   -2.7572    7.3588 H         1 <0>         0.3829
     45 H15         5.0978   -3.5685    6.4413 H         1 <0>         0.1289
     46 H16         3.8839   -5.5135    7.3375 H         1 <0>         0.1354
     47 H17         2.7789   -5.3713    9.5332 H         1 <0>         0.1373
     48 H18         4.1159   -1.3377    9.9407 H         1 <0>         0.1381
@<TRIPOS>BOND
     1    1    6 ar
     2    1    2 ar
     3    1   33 1
     4    2    3 ar
     5    2   34 1
     6    3    4 ar
     7    3    8 1
     8    4    5 ar
     9    4   35 1
    10    5    6 ar
    11    5    7 1
    12    6   36 1
    13    8   13 2
    14    8    9 1
    15    9   10 2
    16    9   37 1
    17   10   11 1
    18   11   12 1
    19   11   13 1
    20   13   14 1
    21   14   19 2
    22   14   15 1
    23   15   16 2
    24   15   38 1
    25   16   17 1
    26   16   20 1
    27   17   18 1
    28   17   19 1
    29   19   39 1
    30   20   21 2
    31   20   22 am
    32   22   23 1
    33   22   40 1
    34   23   24 1
    35   23   26 1
    36   23   41 1
    37   24   25 1
    38   24   42 1
    39   24   43 1
    40   25   44 1
    41   26   31 ar
    42   26   27 ar
    43   27   28 ar
    44   27   45 1
    45   28   29 ar
    46   28   46 1
    47   29   30 ar
    48   29   47 1
    49   30   31 ar
    50   30   32 1
    51   31   48 1
@<TRIPOS>MOLECULE
CHEMBL219849__1
   48    51     0     0     0
SMALL
USER_CHARGES

@<TRIPOS>ATOM
      1 C1         -0.0167    1.3786    0.0096 C.ar      1 <0>        -0.1039
      2 C2          1.1676    2.0878    0.0021 C.ar      1 <0>        -0.1107
      3 C3          2.3840    1.4085   -0.0131 C.ar      1 <0>         0.0146
      4 C4          2.3983    0.0151   -0.0207 C.ar      1 <0>        -0.0965
      5 C5          1.2076   -0.6849   -0.0131 C.ar      1 <0>        -0.0325
      6 C6          0.0021   -0.0041    0.0020 C.ar      1 <0>        -0.1163
      7 Cl1         1.2227   -2.4208   -0.0230 Cl        1 <0>        -0.0706
      8 C7          3.6597    2.1660   -0.0217 C.2       1 <0>        -0.2031
      9 C8          3.9817    3.1931   -0.8578 C.2       1 <0>         0.0824
     10 N1          5.2257    3.6075   -0.5427 N.pl3     1 <0>        -0.4699
     11 N2          5.6983    2.8234    0.5164 N.2       1 <0>        -0.2802
     12 H1          5.7109    4.3266   -0.9767 H         1 <0>         0.4445
     13 C9          4.7639    1.9580    0.8421 C.2       1 <0>         0.1756
     14 C10         4.8515    0.9411    1.9196 C.2       1 <0>        -0.1180
     15 C11         6.0090    0.2429    2.3146 C.2       1 <0>        -0.0665
     16 C12         5.6459   -0.5903    3.3354 C.2       1 <0>        -0.0568
     17 N3          4.3004   -0.4148    3.5685 N.pl3     1 <0>        -0.5318
     18 H2          3.7794   -0.8811    4.2408 H         1 <0>         0.4196
     19 C13         3.8255    0.5150    2.7144 C.2       1 <0>         0.0722
     20 C14         6.5335   -1.5100    4.0557 C.2       1 <0>         0.5940
     21 O1          7.7114   -1.5775    3.7574 O.2       1 <0>        -0.5247
     22 N4          6.0445   -2.2801    5.0478 N.am      1 <0>        -0.7199
     23 C15         6.9308   -3.1985    5.7669 C.3       1 <0>         0.1926
     24 C16         7.0358   -4.5153    4.9950 C.3       1 <0>         0.0672
     25 O2          5.7601   -5.1589    4.9753 O.3       1 <0>        -0.5671
     26 C17         6.3708   -3.4647    7.1405 C.ar      1 <0>        -0.0634
     27 C18         5.0097   -3.6389    7.3100 C.ar      1 <0>        -0.1025
     28 C19         4.4946   -3.8831    8.5692 C.ar      1 <0>        -0.0895
     29 C20         5.3398   -3.9530    9.6606 C.ar      1 <0>        -0.1498
     30 C21         6.7028   -3.7788    9.4921 C.ar      1 <0>         0.1010
     31 C22         7.2184   -3.5402    8.2291 C.ar      1 <0>        -0.1433
     32 F1          7.5299   -3.8464   10.5582 F         1 <0>        -0.1373
     33 H3         -0.9598    1.9047    0.0260 H         1 <0>         0.1326
     34 H4          1.1513    3.1677    0.0077 H         1 <0>         0.1287
     35 H5          3.3383   -0.5164   -0.0328 H         1 <0>         0.1337
     36 H6         -0.9269   -0.5549    0.0079 H         1 <0>         0.1316
     37 H7          3.3526    3.6020   -1.6347 H         1 <0>         0.1814
     38 H8          6.9969    0.3459    1.8906 H         1 <0>         0.1531
     39 H9          2.8041    0.8626    2.6654 H         1 <0>         0.1752
     40 H10         5.1056   -2.2264    5.2856 H         1 <0>         0.3971
     41 H11         7.9206   -2.7511    5.8585 H         1 <0>         0.1153
     42 H12         7.3564   -4.3128    3.9731 H         1 <0>         0.0605
     43 H13         7.7630   -5.1650    5.4820 H         1 <0>         0.0596
     44 H14         5.7521   -6.0018    4.5014 H         1 <0>         0.3823
     45 H15         4.3484   -3.5837    6.4579 H         1 <0>         0.1295
     46 H16         3.4312   -4.0190    8.7004 H         1 <0>         0.1350
     47 H17         4.9371   -4.1431   10.6445 H         1 <0>         0.1367
     48 H18         8.2820   -3.4085    8.0958 H         1 <0>         0.1380
@<TRIPOS>BOND
     1    1    6 ar
     2    1    2 ar
     3    1   33 1
     4    2    3 ar
     5    2   34 1
     6    3    4 ar
     7    3    8 1
     8    4    5 ar
     9    4   35 1
    10    5    6 ar
    11    5    7 1
    12    6   36 1
    13    8   13 1
    14    8    9 2
    15    9   37 1
    16    9   10 1
    17   10   11 1
    18   10   12 1
    19   11   13 2
    20   13   14 1
    21   14   19 2
    22   14   15 1
    23   15   16 2
    24   15   38 1
    25   16   17 1
    26   16   20 1
    27   17   18 1
    28   17   19 1
    29   19   39 1
    30   20   21 2
    31   20   22 am
    32   22   23 1
    33   22   40 1
    34   23   24 1
    35   23   26 1
    36   23   41 1
    37   24   25 1
    38   24   42 1
    39   24   43 1
    40   25   44 1
    41   26   31 ar
    42   26   27 ar
    43   27   28 ar
    44   27   45 1
    45   28   29 ar
    46   28   46 1
    47   29   30 ar
    48   29   47 1
    49   30   31 ar
    50   30   32 1
    51   31   48 1
@<TRIPOS>MOLECULE
CHEMBL219849__2
   48    51     0     0     0
SMALL
USER_CHARGES

@<TRIPOS>ATOM
      1 C1          0.4585    0.4884    0.9561 C.ar      1 <0>        -0.1053
      2 C2          1.6076    1.2518    1.0011 C.ar      1 <0>        -0.0997
      3 C3          2.4549    1.2978   -0.1049 C.ar      1 <0>         0.0180
      4 C4          2.1363    0.5716   -1.2514 C.ar      1 <0>        -0.1040
      5 C5          0.9840   -0.1888   -1.2854 C.ar      1 <0>        -0.0324
      6 C6          0.1465   -0.2303   -0.1835 C.ar      1 <0>        -0.1157
      7 Cl1         0.5845   -1.0937   -2.7121 Cl        1 <0>        -0.0711
      8 C7          3.6902    2.1165   -0.0621 C.2       1 <0>        -0.2043
      9 C8          4.0508    3.1299   -0.9685 C.2       1 <0>         0.0722
     10 N1          5.2047    3.6215   -0.6039 N.2       1 <0>        -0.2872
     11 N2          5.6429    2.9556    0.5466 N.pl3     1 <0>        -0.4647
     12 H1          6.4701    3.1267    1.0233 H         1 <0>         0.4423
     13 C9          4.7029    2.0294    0.8832 C.2       1 <0>         0.1923
     14 C10         4.7529    1.1045    2.0356 C.2       1 <0>        -0.1452
     15 C11         5.0814    1.4409    3.3654 C.2       1 <0>        -0.0779
     16 C12         5.0056    0.2925    4.1007 C.2       1 <0>        -0.0511
     17 N3          4.6408   -0.7344    3.2595 N.pl3     1 <0>        -0.5279
     18 H2          4.5146   -1.6594    3.5227 H         1 <0>         0.4217
     19 C13         4.4814   -0.2472    2.0125 C.2       1 <0>         0.0824
     20 C14         5.2686    0.1735    5.5394 C.2       1 <0>         0.5922
     21 O1          5.5864    1.1561    6.1831 O.2       1 <0>        -0.5237
     22 N4          5.1581   -1.0240    6.1478 N.am      1 <0>        -0.7187
     23 C15         5.4207   -1.1428    7.5842 C.3       1 <0>         0.1927
     24 C16         4.1522   -0.7935    8.3651 C.3       1 <0>         0.0672
     25 O2          3.1386   -1.7610    8.0848 O.3       1 <0>        -0.5674
     26 C17         5.8343   -2.5562    7.9041 C.ar      1 <0>        -0.0643
     27 C18         5.2056   -3.6181    7.2804 C.ar      1 <0>        -0.1033
     28 C19         5.5839   -4.9150    7.5727 C.ar      1 <0>        -0.0890
     29 C20         6.5909   -5.1518    8.4894 C.ar      1 <0>        -0.1492
     30 C21         7.2210   -4.0894    9.1145 C.ar      1 <0>         0.1019
     31 C22         6.8454   -2.7903    8.8163 C.ar      1 <0>        -0.1433
     32 F1          8.2051   -4.3196   10.0110 F         1 <0>        -0.1367
     33 H3         -0.1960    0.4488    1.8142 H         1 <0>         0.1305
     34 H4          1.8497    1.8128    1.8916 H         1 <0>         0.1269
     35 H5          2.7889    0.6038   -2.1113 H         1 <0>         0.1338
     36 H6         -0.7536   -0.8264   -0.2139 H         1 <0>         0.1310
     37 H7          3.4713    3.4477   -1.8226 H         1 <0>         0.1869
     38 H8          5.3438    2.4220    3.7330 H         1 <0>         0.1532
     39 H9          4.1925   -0.8188    1.1429 H         1 <0>         0.1805
     40 H10         4.9048   -1.8072    5.6347 H         1 <0>         0.3974
     41 H11         6.2206   -0.4578    7.8652 H         1 <0>         0.1156
     42 H12         4.3709   -0.7953    9.4330 H         1 <0>         0.0604
     43 H13         3.8030    0.1952    8.0675 H         1 <0>         0.0602
     44 H14         2.3044   -1.6019    8.5471 H         1 <0>         0.3830
     45 H15         4.4182   -3.4341    6.5645 H         1 <0>         0.1288
     46 H16         5.0922   -5.7437    7.0850 H         1 <0>         0.1354
     47 H17         6.8858   -6.1653    8.7182 H         1 <0>         0.1373
     48 H18         7.3393   -1.9605    9.3000 H         1 <0>         0.1381
@<TRIPOS>BOND
     1    1    6 ar
     2    1    2 ar
     3    1   33 1
     4    2    3 ar
     5    2   34 1
     6    3    4 ar
     7    3    8 1
     8    4    5 ar
     9    4   35 1
    10    5    6 ar
    11    5    7 1
    12    6   36 1
    13    8   13 2
    14    8    9 1
    15    9   10 2
    16    9   37 1
    17   10   11 1
    18   11   12 1
    19   11   13 1
    20   13   14 1
    21   14   19 2
    22   14   15 1
    23   15   16 2
    24   15   38 1
    25   16   17 1
    26   16   20 1
    27   17   18 1
    28   17   19 1
    29   19   39 1
    30   20   21 2
    31   20   22 am
    32   22   23 1
    33   22   40 1
    34   23   24 1
    35   23   26 1
    36   23   41 1
    37   24   25 1
    38   24   42 1
    39   24   43 1
    40   25   44 1
    41   26   31 ar
    42   26   27 ar
    43   27   28 ar
    44   27   45 1
    45   28   29 ar
    46   28   46 1
    47   29   30 ar
    48   29   47 1
    49   30   31 ar
    50   30   32 1
    51   31   48 1
@<TRIPOS>MOLECULE
CHEMBL219849__3
   48    51     0     0     0
SMALL
USER_CHARGES

@<TRIPOS>ATOM
      1 C1         -0.0167    1.3786    0.0096 C.ar      1 <0>        -0.1039
      2 C2          1.1676    2.0878    0.0021 C.ar      1 <0>        -0.1107
      3 C3          2.3840    1.4085   -0.0131 C.ar      1 <0>         0.0145
      4 C4          2.3983    0.0151   -0.0207 C.ar      1 <0>        -0.0965
      5 C5          1.2076   -0.6849   -0.0131 C.ar      1 <0>        -0.0327
      6 C6          0.0021   -0.0041    0.0020 C.ar      1 <0>        -0.1163
      7 Cl1         1.2227   -2.4208   -0.0230 Cl        1 <0>        -0.0704
      8 C7          3.6597    2.1660   -0.0217 C.2       1 <0>        -0.2030
      9 C8          3.9817    3.1931   -0.8578 C.2       1 <0>         0.0824
     10 N1          5.2257    3.6075   -0.5427 N.pl3     1 <0>        -0.4699
     11 N2          5.6983    2.8234    0.5164 N.2       1 <0>        -0.2803
     12 H1          5.7109    4.3266   -0.9767 H         1 <0>         0.4445
     13 C9          4.7639    1.9580    0.8421 C.2       1 <0>         0.1757
     14 C10         4.8515    0.9411    1.9196 C.2       1 <0>        -0.1180
     15 C11         6.0090    0.2429    2.3146 C.2       1 <0>        -0.0664
     16 C12         5.6459   -0.5903    3.3354 C.2       1 <0>        -0.0568
     17 N3          4.3004   -0.4148    3.5685 N.pl3     1 <0>        -0.5319
     18 H2          3.7794   -0.8811    4.2408 H         1 <0>         0.4196
     19 C13         3.8255    0.5150    2.7144 C.2       1 <0>         0.0722
     20 C14         6.5335   -1.5100    4.0557 C.2       1 <0>         0.5940
     21 O1          7.7114   -1.5775    3.7574 O.2       1 <0>        -0.5246
     22 N4          6.0445   -2.2801    5.0478 N.am      1 <0>        -0.7199
     23 C15         6.9308   -3.1985    5.7669 C.3       1 <0>         0.1926
     24 C16         7.6362   -2.4462    6.8972 C.3       1 <0>         0.0671
     25 O2          6.6708   -2.0202    7.8608 O.3       1 <0>        -0.5674
     26 C17         6.1199   -4.3293    6.3456 C.ar      1 <0>        -0.0630
     27 C18         4.8782   -4.0767    6.8988 C.ar      1 <0>        -0.1027
     28 C19         4.1333   -5.1128    7.4300 C.ar      1 <0>        -0.0893
     29 C20         4.6294   -6.4028    7.4091 C.ar      1 <0>        -0.1498
     30 C21         5.8725   -6.6569    6.8554 C.ar      1 <0>         0.1013
     31 C22         6.6152   -5.6189    6.3181 C.ar      1 <0>        -0.1434
     32 F1          6.3585   -7.9173    6.8348 F         1 <0>        -0.1372
     33 H3         -0.9598    1.9047    0.0260 H         1 <0>         0.1326
     34 H4          1.1513    3.1677    0.0077 H         1 <0>         0.1287
     35 H5          3.3383   -0.5164   -0.0328 H         1 <0>         0.1338
     36 H6         -0.9269   -0.5549    0.0079 H         1 <0>         0.1316
     37 H7          3.3526    3.6020   -1.6347 H         1 <0>         0.1814
     38 H8          6.9969    0.3459    1.8906 H         1 <0>         0.1532
     39 H9          2.8041    0.8626    2.6654 H         1 <0>         0.1752
     40 H10         5.1056   -2.2264    5.2856 H         1 <0>         0.3971
     41 H11         7.6743   -3.5999    5.0783 H         1 <0>         0.1154
     42 H12         8.3607   -3.1052    7.3756 H         1 <0>         0.0597
     43 H13         8.1505   -1.5762    6.4890 H         1 <0>         0.0605
     44 H14         7.0481   -1.5353    8.6076 H         1 <0>         0.3823
     45 H15         4.4901   -3.0690    6.9163 H         1 <0>         0.1289
     46 H16         3.1635   -4.9144    7.8618 H         1 <0>         0.1350
     47 H17         4.0475   -7.2121    7.8248 H         1 <0>         0.1368
     48 H18         7.5833   -5.8166    5.8819 H         1 <0>         0.1380
@<TRIPOS>BOND
     1    1    6 ar
     2    1    2 ar
     3    1   33 1
     4    2    3 ar
     5    2   34 1
     6    3    4 ar
     7    3    8 1
     8    4    5 ar
     9    4   35 1
    10    5    6 ar
    11    5    7 1
    12    6   36 1
    13    8   13 1
    14    8    9 2
    15    9   37 1
    16    9   10 1
    17   10   11 1
    18   10   12 1
    19   11   13 2
    20   13   14 1
    21   14   19 2
    22   14   15 1
    23   15   16 2
    24   15   38 1
    25   16   17 1
    26   16   20 1
    27   17   18 1
    28   17   19 1
    29   19   39 1
    30   20   21 2
    31   20   22 am
    32   22   23 1
    33   22   40 1
    34   23   24 1
    35   23   26 1
    36   23   41 1
    37   24   25 1
    38   24   42 1
    39   24   43 1
    40   25   44 1
    41   26   31 ar
    42   26   27 ar
    43   27   28 ar
    44   27   45 1
    45   28   29 ar
    46   28   46 1
    47   29   30 ar
    48   29   47 1
    49   30   31 ar
    50   30   32 1
    51   31   48 1
@<TRIPOS>MOLECULE
CHEMBL220888
   48    51     0     0     0
SMALL
USER_CHARGES

@<TRIPOS>ATOM
      1 C1          1.3143    1.2623    1.4487 C.ar      1 <0>        -0.1089
      2 C2          2.4804    1.9653    1.2102 C.ar      1 <0>        -0.1106
      3 C3          3.6509    1.2867    0.9268 C.ar      1 <0>        -0.1038
      4 C4          3.6553   -0.0950    0.8822 C.ar      1 <0>        -0.1013
      5 C5          2.4894   -0.7980    1.1216 C.ar      1 <0>        -0.1097
      6 C6          1.3187   -0.1193    1.4037 C.ar      1 <0>        -0.1116
      7 C7          4.9311   -0.8347    0.5722 C.3       1 <0>         0.1744
      8 H1          5.6301   -0.1615    0.0759 H         1 <0>         0.1280
      9 C8          5.5434   -1.3391    1.8535 C.2       1 <0>         0.5129
     10 O1          5.7168   -2.5285    2.0157 O.2       1 <0>        -0.5274
     11 N1          5.8983   -0.4685    2.8192 N.am      1 <0>        -0.8477
     12 N2          4.6368   -1.9684   -0.3078 N.am      1 <0>        -0.7099
     13 C9          5.5974   -2.4636   -1.1131 C.2       1 <0>         0.5993
     14 O2          6.7092   -1.9690   -1.1093 O.2       1 <0>        -0.5153
     15 C10         5.3025   -3.5991   -1.9945 C.2       1 <0>        -0.0484
     16 C11         6.1823   -4.1970   -2.8510 C.2       1 <0>        -0.0552
     17 C12         5.4869   -5.2393   -3.4990 C.2       1 <0>        -0.1412
     18 C13         4.1985   -5.2364   -3.0079 C.2       1 <0>         0.0583
     19 N3          4.0932   -4.2489   -2.0960 N.pl3     1 <0>        -0.5281
     20 H2          3.2928   -4.0299   -1.5937 H         1 <0>         0.4205
     21 C14         6.0368   -6.1622   -4.5148 C.2       1 <0>         0.1888
     22 C15         6.8101   -5.8144   -5.6138 C.2       1 <0>        -0.1965
     23 C16         7.1111   -7.0017   -6.3054 C.2       1 <0>         0.0722
     24 N4          6.5598   -8.0022   -5.6720 N.2       1 <0>        -0.2882
     25 N5          5.8856   -7.5154   -4.5462 N.pl3     1 <0>        -0.4687
     26 H3          5.3943   -8.0486   -3.9018 H         1 <0>         0.4404
     27 C17         7.2387   -4.4457   -5.9892 C.ar      1 <0>         0.0173
     28 C18         6.2903   -3.4386   -6.1635 C.ar      1 <0>        -0.0974
     29 C19         6.6944   -2.1663   -6.5125 C.ar      1 <0>        -0.1045
     30 C20         8.0380   -1.8882   -6.6896 C.ar      1 <0>        -0.1140
     31 C21         8.9845   -2.8838   -6.5184 C.ar      1 <0>        -0.0306
     32 C22         8.5916   -4.1597   -6.1635 C.ar      1 <0>        -0.1023
     33 Cl1        10.6683   -2.5266   -6.7437 Cl        1 <0>        -0.0720
     34 H4          0.4008    1.7923    1.6746 H         1 <0>         0.1276
     35 H5          2.4769    3.0447    1.2450 H         1 <0>         0.1303
     36 H6          4.5618    1.8359    0.7397 H         1 <0>         0.1304
     37 H7          2.4929   -1.8774    1.0865 H         1 <0>         0.1200
     38 H8          0.4077   -0.6686    1.5904 H         1 <0>         0.1278
     39 H9          5.7596    0.4827    2.6895 H         1 <0>         0.4019
     40 H10         6.2924   -0.7932    3.6440 H         1 <0>         0.4059
     41 H11         3.7505   -2.3627   -0.3108 H         1 <0>         0.3982
     42 H12         7.2158   -3.9232   -3.0038 H         1 <0>         0.1542
     43 H13         3.4091   -5.9127   -3.3010 H         1 <0>         0.1796
     44 H14         7.6992   -7.0740   -7.2084 H         1 <0>         0.1872
     45 H15         5.2410   -3.6541   -6.0260 H         1 <0>         0.1243
     46 H16         5.9603   -1.3859   -6.6480 H         1 <0>         0.1296
     47 H17         8.3495   -0.8909   -6.9627 H         1 <0>         0.1308
     48 H18         9.3308   -4.9348   -6.0254 H         1 <0>         0.1331
@<TRIPOS>BOND
     1    1    6 ar
     2    1    2 ar
     3    1   34 1
     4    2    3 ar
     5    2   35 1
     6    3    4 ar
     7    3   36 1
     8    4    5 ar
     9    4    7 1
    10    5    6 ar
    11    5   37 1
    12    6   38 1
    13    7    8 1
    14    7    9 1
    15    7   12 1
    16    9   10 2
    17    9   11 am
    18   11   39 1
    19   11   40 1
    20   12   13 am
    21   12   41 1
    22   13   14 2
    23   13   15 1
    24   15   19 1
    25   15   16 2
    26   16   17 1
    27   16   42 1
    28   17   18 2
    29   17   21 1
    30   18   19 1
    31   18   43 1
    32   19   20 1
    33   21   25 1
    34   21   22 2
    35   22   23 1
    36   22   27 1
    37   23   24 2
    38   23   44 1
    39   24   25 1
    40   25   26 1
    41   27   32 ar
    42   27   28 ar
    43   28   29 ar
    44   28   45 1
    45   29   30 ar
    46   29   46 1
    47   30   31 ar
    48   30   47 1
    49   31   32 ar
    50   31   33 1
    51   32   48 1
@<TRIPOS>MOLECULE
CHEMBL220888__1
   48    51     0     0     0
SMALL
USER_CHARGES

@<TRIPOS>ATOM
      1 C1         -0.0167    1.3781    0.0096 C.ar      1 <0>        -0.1094
      2 C2          1.1709    2.0855    0.0021 C.ar      1 <0>        -0.1112
      3 C3          2.3773    1.4107   -0.0130 C.ar      1 <0>        -0.1042
      4 C4          2.3960    0.0285   -0.0201 C.ar      1 <0>        -0.1009
      5 C5          1.2084   -0.6789   -0.0117 C.ar      1 <0>        -0.1091
      6 C6          0.0021   -0.0041    0.0020 C.ar      1 <0>        -0.1115
      7 C7          3.7112   -0.7071   -0.0376 C.3       1 <0>         0.1742
      8 H1          4.4960   -0.0399   -0.3940 H         1 <0>         0.1274
      9 C8          4.0438   -1.1746    1.3559 C.2       1 <0>         0.5129
     10 O1          4.1838   -2.3581    1.5813 O.2       1 <0>        -0.5265
     11 N1          4.1857   -0.2776    2.3518 N.am      1 <0>        -0.8482
     12 N2          3.6115   -1.8645   -0.9302 N.am      1 <0>        -0.7104
     13 C9          4.7211   -2.3705   -1.5040 C.2       1 <0>         0.6012
     14 O2          5.8057   -1.8660   -1.2806 O.2       1 <0>        -0.5198
     15 C10         4.6213   -3.5296   -2.3980 C.2       1 <0>        -0.0535
     16 C11         5.6616   -4.1430   -3.0379 C.2       1 <0>        -0.0653
     17 C12         5.1179   -5.2045   -3.7869 C.2       1 <0>        -0.1173
     18 C13         3.7678   -5.2025   -3.5788 C.2       1 <0>         0.0719
     19 N3          3.4640   -4.1946   -2.7351 N.pl3     1 <0>        -0.5325
     20 H2          2.5741   -3.9730   -2.4191 H         1 <0>         0.4191
     21 C14         5.8729   -6.1511   -4.6451 C.2       1 <0>         0.1765
     22 C15         5.5731   -7.5226   -4.8396 C.2       1 <0>        -0.2028
     23 C16         6.5049   -8.0279   -5.6966 C.2       1 <0>         0.0820
     24 N4          7.3482   -7.0283   -6.0256 N.pl3     1 <0>        -0.4699
     25 N5          6.9354   -5.8654   -5.3644 N.2       1 <0>        -0.2803
     26 H3          8.1100   -7.1019   -6.6216 H         1 <0>         0.4444
     27 C17         4.4507   -8.2716   -4.2228 C.ar      1 <0>         0.0150
     28 C18         4.2315   -8.1965   -2.8485 C.ar      1 <0>        -0.0999
     29 C19         3.1858   -8.8946   -2.2794 C.ar      1 <0>        -0.1043
     30 C20         2.3557   -9.6685   -3.0701 C.ar      1 <0>        -0.1157
     31 C21         2.5685   -9.7474   -4.4356 C.ar      1 <0>        -0.0322
     32 C22         3.6086   -9.0476   -5.0162 C.ar      1 <0>        -0.1071
     33 Cl1         1.5228  -10.7218   -5.4209 Cl        1 <0>        -0.0713
     34 H4         -0.9591    1.9053    0.0259 H         1 <0>         0.1273
     35 H5          1.1563    3.1654    0.0076 H         1 <0>         0.1298
     36 H6          3.3051    1.9634   -0.0196 H         1 <0>         0.1301
     37 H7          1.2231   -1.7588   -0.0176 H         1 <0>         0.1208
     38 H8         -0.9258   -0.5567    0.0082 H         1 <0>         0.1279
     39 H9          4.0737    0.6689    2.1716 H         1 <0>         0.4017
     40 H10         4.3997   -0.5786    3.2487 H         1 <0>         0.4055
     41 H11         2.7469   -2.2666   -1.1082 H         1 <0>         0.3987
     42 H12         6.7038   -3.8656   -2.9806 H         1 <0>         0.1534
     43 H13         3.0621   -5.8948   -4.0136 H         1 <0>         0.1763
     44 H14         6.5584   -9.0473   -6.0490 H         1 <0>         0.1812
     45 H15         4.8792   -7.5933   -2.2297 H         1 <0>         0.1302
     46 H16         3.0156   -8.8368   -1.2145 H         1 <0>         0.1320
     47 H17         1.5388  -10.2134   -2.6205 H         1 <0>         0.1315
     48 H18         3.7716   -9.1060   -6.0822 H         1 <0>         0.1325
@<TRIPOS>BOND
     1    1    6 ar
     2    1    2 ar
     3    1   34 1
     4    2    3 ar
     5    2   35 1
     6    3    4 ar
     7    3   36 1
     8    4    5 ar
     9    4    7 1
    10    5    6 ar
    11    5   37 1
    12    6   38 1
    13    7    8 1
    14    7    9 1
    15    7   12 1
    16    9   10 2
    17    9   11 am
    18   11   39 1
    19   11   40 1
    20   12   13 am
    21   12   41 1
    22   13   14 2
    23   13   15 1
    24   15   19 1
    25   15   16 2
    26   16   17 1
    27   16   42 1
    28   17   18 2
    29   17   21 1
    30   18   19 1
    31   18   43 1
    32   19   20 1
    33   21   25 2
    34   21   22 1
    35   22   27 1
    36   22   23 2
    37   23   44 1
    38   23   24 1
    39   24   25 1
    40   24   26 1
    41   27   32 ar
    42   27   28 ar
    43   28   29 ar
    44   28   45 1
    45   29   30 ar
    46   29   46 1
    47   30   31 ar
    48   30   47 1
    49   31   32 ar
    50   31   33 1
    51   32   48 1
@<TRIPOS>MOLECULE
CHEMBL373448
   46    49     0     0     0
SMALL
USER_CHARGES

@<TRIPOS>ATOM
      1 C1          0.4585    0.4884    0.9561 C.ar      1 <0>        -0.1053
      2 C2          1.6076    1.2518    1.0011 C.ar      1 <0>        -0.0998
      3 C3          2.4549    1.2978   -0.1049 C.ar      1 <0>         0.0180
      4 C4          2.1363    0.5716   -1.2514 C.ar      1 <0>        -0.1041
      5 C5          0.9840   -0.1888   -1.2854 C.ar      1 <0>        -0.0324
      6 C6          0.1465   -0.2303   -0.1835 C.ar      1 <0>        -0.1158
      7 Cl1         0.5845   -1.0937   -2.7121 Cl        1 <0>        -0.0710
      8 C7          3.6902    2.1165   -0.0621 C.2       1 <0>        -0.2043
      9 C8          4.0508    3.1299   -0.9685 C.2       1 <0>         0.0723
     10 N1          5.2047    3.6215   -0.6039 N.2       1 <0>        -0.2871
     11 N2          5.6429    2.9556    0.5466 N.pl3     1 <0>        -0.4647
     12 H1          6.4701    3.1267    1.0233 H         1 <0>         0.4423
     13 C9          4.7029    2.0294    0.8832 C.2       1 <0>         0.1920
     14 C10         4.7529    1.1045    2.0356 C.2       1 <0>        -0.1449
     15 C11         5.0814    1.4409    3.3654 C.2       1 <0>        -0.0787
     16 C12         5.0056    0.2925    4.1007 C.2       1 <0>        -0.0517
     17 N3          4.6408   -0.7344    3.2595 N.pl3     1 <0>        -0.5287
     18 H2          4.5146   -1.6594    3.5227 H         1 <0>         0.4216
     19 C13         4.4814   -0.2472    2.0125 C.2       1 <0>         0.0814
     20 C14         5.2686    0.1735    5.5394 C.2       1 <0>         0.5893
     21 O1          5.5864    1.1561    6.1831 O.2       1 <0>        -0.5204
     22 N4          5.1581   -1.0240    6.1478 N.am      1 <0>        -0.7328
     23 C15         5.4207   -1.1428    7.5842 C.3       1 <0>         0.1246
     24 C16         5.2263   -2.5966    8.0197 C.3       1 <0>        -0.0866
     25 C17         5.4964   -2.7188    9.4972 C.ar      1 <0>        -0.1387
     26 C18         6.7757   -2.9928    9.9568 C.ar      1 <0>        -0.0688
     27 C19         6.9774   -3.0964   11.3244 C.ar      1 <0>        -0.1695
     28 C20         5.9042   -2.9244   12.1784 C.ar      1 <0>         0.0993
     29 N5          4.7009   -2.6653   11.7057 N.ar      1 <0>        -0.4824
     30 C21         4.4735   -2.5537   10.4114 C.ar      1 <0>         0.1064
     31 H3         -0.1960    0.4488    1.8142 H         1 <0>         0.1306
     32 H4          1.8497    1.8128    1.8916 H         1 <0>         0.1271
     33 H5          2.7889    0.6038   -2.1113 H         1 <0>         0.1339
     34 H6         -0.7536   -0.8264   -0.2139 H         1 <0>         0.1311
     35 H7          3.4713    3.4477   -1.8226 H         1 <0>         0.1870
     36 H8          5.3438    2.4220    3.7330 H         1 <0>         0.1530
     37 H9          4.1925   -0.8188    1.1429 H         1 <0>         0.1805
     38 H10         4.9048   -1.8072    5.6347 H         1 <0>         0.3952
     39 H11         6.4452   -0.8349    7.7930 H         1 <0>         0.0737
     40 H12         4.7300   -0.5034    8.1339 H         1 <0>         0.0753
     41 H13         4.2018   -2.9045    7.8109 H         1 <0>         0.0849
     42 H14         5.9170   -3.2360    7.4699 H         1 <0>         0.0828
     43 H15         7.5954   -3.1227    9.2657 H         1 <0>         0.1349
     44 H16         7.9605   -3.3092   11.7176 H         1 <0>         0.1376
     45 H17         6.0530   -3.0036   13.2452 H         1 <0>         0.1577
     46 H18         3.4752   -2.3353   10.0618 H         1 <0>         0.1552
@<TRIPOS>BOND
     1    1    6 ar
     2    1    2 ar
     3    1   31 1
     4    2    3 ar
     5    2   32 1
     6    3    4 ar
     7    3    8 1
     8    4    5 ar
     9    4   33 1
    10    5    6 ar
    11    5    7 1
    12    6   34 1
    13    8   13 2
    14    8    9 1
    15    9   10 2
    16    9   35 1
    17   10   11 1
    18   11   12 1
    19   11   13 1
    20   13   14 1
    21   14   19 2
    22   14   15 1
    23   15   16 2
    24   15   36 1
    25   16   17 1
    26   16   20 1
    27   17   18 1
    28   17   19 1
    29   19   37 1
    30   20   21 2
    31   20   22 am
    32   22   23 1
    33   22   38 1
    34   23   24 1
    35   23   39 1
    36   23   40 1
    37   24   25 1
    38   24   41 1
    39   24   42 1
    40   25   30 ar
    41   25   26 ar
    42   26   27 ar
    43   26   43 1
    44   27   28 ar
    45   27   44 1
    46   28   29 ar
    47   28   45 1
    48   29   30 ar
    49   30   46 1
