@<TRIPOS>MOLECULE
ZINC03897368
   38    38     0     0     0
SMALL
USER_CHARGES
1,9-dioxa-4,6,12,14-tetrazacyclohexadecane-5,13-dithione
@<TRIPOS>ATOM
      1 C1         -2.8103    0.3303    4.5401 C.3       1 <0>         0.0928
      2 C2         -2.2270   -0.7916    3.6786 C.3       1 <0>         0.0477
      3 O1         -2.0233   -0.3133    2.3477 O.3       1 <0>        -0.3410
      4 C3         -1.4859   -1.2904    1.4542 C.3       1 <0>         0.0470
      5 C4         -1.3154   -0.6718    0.0651 C.3       1 <0>         0.0928
      6 N1          0.0021   -0.0041    0.0020 N.pl3     1 <0>        -0.7068
      7 C5         -0.0164    1.3592    0.0095 C.2       1 <0>         0.5388
      8 S1         -1.4941    2.2236    0.0213 S.2       1 <0>        -0.5244
      9 N2          1.1809    2.0111    0.0016 N.pl3     1 <0>        -0.7057
     10 C6          1.1164    3.4880    0.0012 C.3       1 <0>         0.0920
     11 C7          1.6203    4.0022    1.3512 C.3       1 <0>         0.0472
     12 O2          0.5447    4.0048    2.2917 O.3       1 <0>        -0.3408
     13 C8          0.9247    4.4067    3.6092 C.3       1 <0>         0.0474
     14 C9         -0.3146    4.4525    4.5056 C.3       1 <0>         0.0938
     15 N3         -0.5053    3.1210    5.1191 N.pl3     1 <0>        -0.7075
     16 C10        -1.5181    2.3653    4.6074 C.2       1 <0>         0.5336
     17 S2         -2.5317    2.9682    3.3664 S.2       1 <0>        -0.5179
     18 N4         -1.6972    1.1135    5.1171 N.pl3     1 <0>        -0.7066
     19 H1         -3.4325    0.9789    3.9235 H         1 <0>         0.1479
     20 H2         -3.4118   -0.0992    5.3413 H         1 <0>         0.0876
     21 H3         -2.9196   -1.6331    3.6602 H         1 <0>         0.0577
     22 H4         -1.2743   -1.1142    4.0986 H         1 <0>         0.0385
     23 H5         -2.1663   -2.1397    1.3927 H         1 <0>         0.0581
     24 H6         -0.5171   -1.6268    1.8236 H         1 <0>         0.0384
     25 H7         -2.1047    0.0596   -0.1088 H         1 <0>         0.1478
     26 H8         -1.3665   -1.4522   -0.6941 H         1 <0>         0.0883
     27 H9          0.8308   -0.5063   -0.0418 H         1 <0>         0.3974
     28 H10         2.0254    1.5339   -0.0032 H         1 <0>         0.3971
     29 H11         0.0858    3.8088   -0.1506 H         1 <0>         0.1489
     30 H12         1.7437    3.8833   -0.7978 H         1 <0>         0.0873
     31 H13         2.0029    5.0162    1.2340 H         1 <0>         0.0587
     32 H14         2.4175    3.3527    1.7128 H         1 <0>         0.0382
     33 H15         1.3814    5.3956    3.5699 H         1 <0>         0.0572
     34 H16         1.6404    3.6917    4.0149 H         1 <0>         0.0387
     35 H17        -1.1893    4.7081    3.9075 H         1 <0>         0.1466
     36 H18        -0.1757    5.1989    5.2877 H         1 <0>         0.0885
     37 H19         0.0572    2.8037    5.8428 H         1 <0>         0.3973
     38 H20        -1.1280    0.7579    5.8174 H         1 <0>         0.3971
@<TRIPOS>BOND
     1    1   18 1
     2    1    2 1
     3    1   19 1
     4    1   20 1
     5    2    3 1
     6    2   21 1
     7    2   22 1
     8    3    4 1
     9    4    5 1
    10    4   23 1
    11    4   24 1
    12    5    6 1
    13    5   25 1
    14    5   26 1
    15    6    7 1
    16    6   27 1
    17    7    8 2
    18    7    9 1
    19    9   10 1
    20    9   28 1
    21   10   11 1
    22   10   29 1
    23   10   30 1
    24   11   12 1
    25   11   31 1
    26   11   32 1
    27   12   13 1
    28   13   14 1
    29   13   33 1
    30   13   34 1
    31   14   15 1
    32   14   35 1
    33   14   36 1
    34   15   16 1
    35   15   37 1
    36   16   17 2
    37   16   18 1
    38   18   38 1
@<TRIPOS>MOLECULE
ZINC05607265
   32    34     0     0     0
SMALL
USER_CHARGES
dichloro-hydroxy-methyl-BLAHtrione
@<TRIPOS>ATOM
      1 C1          2.1743    5.1984    0.6964 C.3       1 <0>         0.0146
      2 N1          2.3469    3.9254   -0.0161 N.pl3     1 <0>        -0.4986
      3 C2          1.1662    3.1771    0.0018 C.ar      1 <0>         0.1010
      4 C3         -0.0526    3.8470    0.0193 C.ar      1 <0>        -0.1007
      5 C4         -1.2375    3.1355    0.0302 C.ar      1 <0>        -0.0368
      6 C5         -1.2201    1.7511    0.0174 C.ar      1 <0>        -0.0172
      7 C6         -0.0126    1.0758    0.0080 C.ar      1 <0>        -0.1241
      8 C7          1.1786    1.7852    0.0004 C.ar      1 <0>         0.1796
      9 N2          2.3985    1.0873    0.0011 N.pl3     1 <0>        -0.7129
     10 C8          3.6272    1.8565   -0.2530 C.3       1 <0>         0.1662
     11 C9          3.5012    3.1858    0.5023 C.3       1 <0>         0.2847
     12 H1          3.3604    2.9889    1.5651 H         1 <0>         0.0867
     13 O1          4.6883    3.9580    0.3114 O.3       1 <0>        -0.5463
     14 C10         4.8122    1.0929    0.2622 C.2       1 <0>         0.5324
     15 O2          4.8605    0.8023    1.4382 O.2       1 <0>        -0.4552
     16 N3          5.8195    0.7241   -0.5427 N.am      1 <0>        -0.6549
     17 C11         5.8248    1.0188   -1.8515 C.2       1 <0>         0.7154
     18 O3          6.7630    0.6597   -2.5347 O.2       1 <0>        -0.5087
     19 N4          4.8217    1.6999   -2.4257 N.am      1 <0>        -0.6598
     20 C12         3.7591    2.1213   -1.7243 C.2       1 <0>         0.5131
     21 O4          2.8813    2.7332   -2.2943 O.2       1 <0>        -0.4290
     22 Cl1        -2.7120    0.8635    0.0197 Cl        1 <0>        -0.0412
     23 Cl2        -2.7535    3.9810    0.0527 Cl        1 <0>        -0.0441
     24 H2          1.8336    5.0025    1.7131 H         1 <0>         0.0532
     25 H3          3.1259    5.7291    0.7280 H         1 <0>         0.0814
     26 H4          1.4353    5.8083    0.1767 H         1 <0>         0.0949
     27 H5         -0.0732    4.9268    0.0248 H         1 <0>         0.1518
     28 H6          0.0021   -0.0041    0.0020 H         1 <0>         0.1488
     29 H7          2.4296    0.1315    0.1639 H         1 <0>         0.4246
     30 H8          4.6757    4.8156    0.7580 H         1 <0>         0.3988
     31 H9          6.5658    0.2307   -0.1678 H         1 <0>         0.4429
     32 H10         4.8664    1.8934   -3.3751 H         1 <0>         0.4394
@<TRIPOS>BOND
     1    1    2 1
     2    1   24 1
     3    1   25 1
     4    1   26 1
     5    2   11 1
     6    2    3 1
     7    3    8 ar
     8    3    4 ar
     9    4    5 ar
    10    4   27 1
    11    5    6 ar
    12    5   23 1
    13    6    7 ar
    14    6   22 1
    15    7    8 ar
    16    7   28 1
    17    8    9 1
    18    9   10 1
    19    9   29 1
    20   10   20 1
    21   10   11 1
    22   10   14 1
    23   11   12 1
    24   11   13 1
    25   13   30 1
    26   14   15 2
    27   14   16 am
    28   16   17 am
    29   16   31 1
    30   17   18 2
    31   17   19 am
    32   19   20 am
    33   19   32 1
    34   20   21 2
@<TRIPOS>MOLECULE
ZINC15086118
   30    31     0     0     0
SMALL
USER_CHARGES
(2S,3S,4R,5R)-2-[(5-bromo-2-pyridyl)amino]tetrahydropyran-3,4,5-triol
@<TRIPOS>ATOM
      1 C1          0.0556    1.4327    0.7360 C.ar      1 <0>        -0.0025
      2 C2          1.2468    2.0930    0.4939 C.ar      1 <0>        -0.2343
      3 C3          2.3902    1.3487    0.2236 C.ar      1 <0>         0.4287
      4 N1          2.3430    0.0257    0.1975 N.ar      1 <0>        -0.5317
      5 C4          1.2215   -0.6314    0.4245 C.ar      1 <0>         0.1883
      6 C5          0.0482    0.0441    0.6994 C.ar      1 <0>        -0.2087
      7 Br1        -1.5511   -0.9117    1.0232 Br        1 <0>        -0.0418
      8 N2          3.5940    1.9999   -0.0220 N.pl3     1 <0>        -0.7000
      9 C6          3.6288    3.4609   -0.1251 C.3       1 <0>         0.3369
     10 H1          2.6250    3.8226   -0.3925 H         1 <0>         0.0864
     11 C7          4.6932    3.8756   -1.1442 C.3       1 <0>         0.1060
     12 H2          5.6725    3.4353   -0.9051 H         1 <0>         0.0814
     13 C8          4.7652    5.4046   -1.2021 C.3       1 <0>         0.0961
     14 H3          3.8419    5.8373   -1.6148 H         1 <0>         0.0774
     15 C9          5.0617    5.9443    0.2005 C.3       1 <0>         0.0496
     16 H4          5.1313    7.0421    0.2039 H         1 <0>         0.0699
     17 C10         3.9830    5.4496    1.1677 C.3       1 <0>         0.0348
     18 O1          3.9482    4.0211    1.1502 O.3       1 <0>        -0.3847
     19 O2          6.3417    5.4771    0.6312 O.3       1 <0>        -0.5788
     20 O3          5.8068    5.8006   -2.0967 O.3       1 <0>        -0.5870
     21 O4          4.3462    3.3636   -2.4324 O.3       1 <0>        -0.5878
     22 H5         -0.8492    1.9844    0.9443 H         1 <0>         0.1428
     23 H6          1.2883    3.1720    0.5141 H         1 <0>         0.1354
     24 H7          1.2206   -1.7109    0.3946 H         1 <0>         0.1658
     25 H8          4.5202    1.4181   -0.1389 H         1 <0>         0.4361
     26 H9          4.2145    5.7988    2.1848 H         1 <0>         0.1097
     27 H10         3.0041    5.8445    0.8583 H         1 <0>         0.0645
     28 H11         6.7275    5.7638    1.6206 H         1 <0>         0.4101
     29 H12         6.0087    6.8683   -2.2675 H         1 <0>         0.4148
     30 H13         4.9975    3.5614   -3.2965 H         1 <0>         0.4225
@<TRIPOS>BOND
     1    1    6 ar
     2    1    2 ar
     3    1   22 1
     4    2    3 ar
     5    2   23 1
     6    3    4 ar
     7    3    8 1
     8    4    5 ar
     9    5    6 ar
    10    5   24 1
    11    6    7 1
    12    8    9 1
    13    8   25 1
    14    9   10 1
    15    9   18 1
    16    9   11 1
    17   11   12 1
    18   11   13 1
    19   11   21 1
    20   13   14 1
    21   13   15 1
    22   13   20 1
    23   15   16 1
    24   15   17 1
    25   15   19 1
    26   17   18 1
    27   17   26 1
    28   17   27 1
    29   19   28 1
    30   20   29 1
    31   21   30 1
@<TRIPOS>MOLECULE
ZINC36378012
   43    45     0     0     0
SMALL
USER_CHARGES

@<TRIPOS>ATOM
      1 C1         -0.7750    1.4973    0.0807 C.3       1 <0>         0.0223
      2 N1         -0.5430    0.0474    0.0384 N.3       1 <0>        -0.5318
      3 C2          0.0504   -0.3552   -1.2494 C.3       1 <0>         0.0773
      4 C3          0.0926   -1.8633   -1.2799 C.2       1 <0>        -0.1253
      5 C4          0.2826   -2.5401   -0.1627 C.2       1 <0>        -0.0502
      6 C5          0.5175   -1.8772    1.1645 C.3       1 <0>        -0.0330
      7 H1          1.5554   -2.0565    1.4451 H         1 <0>         0.0862
      8 C6          0.3156   -0.3797    1.1465 C.3       1 <0>         0.0592
      9 C7         -0.3691   -2.5662    2.2031 C.3       1 <0>        -0.0185
     10 H2         -1.4104   -2.5168    1.8847 H         1 <0>         0.1331
     11 C8          0.0594   -4.0287    2.3277 C.3       1 <0>         0.2110
     12 C9          0.1484   -4.6995    0.9904 C.2       1 <0>         0.2400
     13 C10         0.2652   -4.0242   -0.1817 C.2       1 <0>        -0.1218
     14 C11         0.3699   -4.7347   -1.4205 C.1       1 <0>         0.2620
     15 N2          0.4529   -5.2984   -2.4033 N.1       1 <0>        -0.4214
     16 N3          0.1104   -6.0649    0.9484 N.pl3     1 <0>        -0.8402
     17 C12         1.3764   -4.0883    2.9825 C.1       1 <0>         0.2005
     18 N4          2.3928   -4.1343    3.4879 N.1       1 <0>        -0.3546
     19 C13        -0.9203   -4.7462    3.1596 C.1       1 <0>         0.1943
     20 N5         -1.6765   -5.2999    3.8016 N.1       1 <0>        -0.3493
     21 C14        -0.2152   -1.8775    3.5347 C.ar      1 <0>        -0.0953
     22 C15        -1.3325   -1.5967    4.2991 C.ar      1 <0>        -0.0899
     23 C16        -1.1966   -0.9651    5.5213 C.ar      1 <0>        -0.1255
     24 C17         0.0614   -0.6123    5.9827 C.ar      1 <0>         0.0913
     25 C18         1.1859   -0.8952    5.2135 C.ar      1 <0>         0.0888
     26 C19         1.0432   -1.5329    3.9916 C.ar      1 <0>        -0.1228
     27 O1          2.4227   -0.5510    5.6621 O.3       1 <0>        -0.4848
     28 O2          0.1967    0.0096    7.1846 O.3       1 <0>        -0.4867
     29 H3          0.1785    2.0202    0.0057 H         1 <0>         0.0284
     30 H4         -1.4150    1.7874   -0.7525 H         1 <0>         0.0731
     31 H5         -1.2606    1.7603    1.0205 H         1 <0>         0.0719
     32 H6         -0.5631    0.0144   -2.0710 H         1 <0>         0.0915
     33 H7          1.0610    0.0448   -1.3322 H         1 <0>         0.0541
     34 H8         -0.0330   -2.3886   -2.2151 H         1 <0>         0.1195
     35 H9          1.2860    0.1074    1.0506 H         1 <0>         0.0447
     36 H10        -0.1414   -0.0727    2.0872 H         1 <0>         0.0919
     37 H11         0.0277   -6.5733    1.7704 H         1 <0>         0.4052
     38 H12         0.1660   -6.5257    0.0967 H         1 <0>         0.4143
     39 H13        -2.3135   -1.8712    3.9406 H         1 <0>         0.1366
     40 H14        -2.0710   -0.7463    6.1162 H         1 <0>         0.1391
     41 H15         1.9146   -1.7570    3.3943 H         1 <0>         0.1343
     42 H16         2.8548   -1.2367    6.1895 H         1 <0>         0.3899
     43 H17         0.3101   -0.5958    7.9301 H         1 <0>         0.3907
@<TRIPOS>BOND
     1    1    2 1
     2    1   29 1
     3    1   30 1
     4    1   31 1
     5    2    8 1
     6    2    3 1
     7    3    4 1
     8    3   32 1
     9    3   33 1
    10    4    5 2
    11    4   34 1
    12    5   13 1
    13    5    6 1
    14    6    7 1
    15    6    8 1
    16    6    9 1
    17    8   35 1
    18    8   36 1
    19    9   10 1
    20    9   11 1
    21    9   21 1
    22   11   12 1
    23   11   17 1
    24   11   19 1
    25   12   13 2
    26   12   16 1
    27   13   14 1
    28   14   15 3
    29   16   37 1
    30   16   38 1
    31   17   18 3
    32   19   20 3
    33   21   26 ar
    34   21   22 ar
    35   22   23 ar
    36   22   39 1
    37   23   24 ar
    38   23   40 1
    39   24   25 ar
    40   24   28 1
    41   25   26 ar
    42   25   27 1
    43   26   41 1
    44   27   42 1
    45   28   43 1
@<TRIPOS>MOLECULE
ZINC05343294
   36    39     0     0     0
SMALL
USER_CHARGES

@<TRIPOS>ATOM
      1 C1         -0.0184    1.5028    0.0103 C.3       1 <0>        -0.1102
      2 C2          0.0021   -0.0041    0.0020 C.ar      1 <0>        -0.1050
      3 C3          0.0064   -0.7196   -1.1857 C.ar      1 <0>        -0.0840
      4 C4          0.0265   -2.0989   -1.2071 C.ar      1 <0>        -0.1389
      5 C5          0.0428   -2.8416   -0.0311 C.ar      1 <0>        -0.0492
      6 C6          0.0372   -2.1376    1.1533 C.ar      1 <0>        -0.1256
      7 C7          0.0233   -0.7370    1.1892 C.ar      1 <0>         0.1455
      8 N1          0.0303   -0.2892    2.4984 N.am      1 <0>        -0.6609
      9 C8          0.0496   -1.3096    3.3820 C.2       1 <0>         0.5383
     10 O1          0.0581   -1.2168    4.5913 O.2       1 <0>        -0.4773
     11 C9          0.0471   -2.5908    2.5777 C.3       1 <0>         0.1278
     12 C10         1.2799   -3.3913    2.8908 C.2       1 <0>        -0.2622
     13 C11         2.5631   -3.0081    2.9642 C.2       1 <0>         0.1510
     14 N2          3.3003   -4.0979    3.2798 N.pl3     1 <0>        -0.4562
     15 H1          4.2626   -4.1191    3.4003 H         1 <0>         0.4530
     16 N3          2.4301   -5.1924    3.4029 N.2       1 <0>        -0.2508
     17 C12         1.2195   -4.7760    3.1714 C.2       1 <0>         0.2808
     18 O2          0.0434   -5.4586    3.1732 O.3       1 <0>        -0.2075
     19 C13        -1.0984   -4.7425    3.1603 C.2       1 <0>         0.4609
     20 C14        -1.1670   -3.4190    2.8954 C.2       1 <0>        -0.2589
     21 C15        -2.4480   -2.7795    2.9182 C.1       1 <0>         0.2668
     22 N4         -3.4643   -2.2721    2.9362 N.1       1 <0>        -0.4301
     23 N5         -2.2706   -5.4021    3.4343 N.pl3     1 <0>        -0.8235
     24 C16         3.0893   -1.6145    2.7359 C.3       1 <0>        -0.1080
     25 H2          1.0042    1.8801    0.0026 H         1 <0>         0.0736
     26 H3         -0.5455    1.8639   -0.8728 H         1 <0>         0.0742
     27 H4         -0.5286    1.8543    0.9071 H         1 <0>         0.0619
     28 H5         -0.0066   -0.1812   -2.1218 H         1 <0>         0.1275
     29 H6          0.0300   -2.6128   -2.1570 H         1 <0>         0.1272
     30 H7          0.0588   -3.9214   -0.0457 H         1 <0>         0.1331
     31 H8          0.0224    0.6472    2.7514 H         1 <0>         0.4152
     32 H9         -2.2585   -6.3523    3.6286 H         1 <0>         0.4152
     33 H10        -3.1111   -4.9179    3.4336 H         1 <0>         0.4285
     34 H11         3.0965   -1.0697    3.6799 H         1 <0>         0.0911
     35 H12         4.1034   -1.6693    2.3402 H         1 <0>         0.0862
     36 H13         2.4484   -1.0966    2.0224 H         1 <0>         0.0906
@<TRIPOS>BOND
     1    1    2 1
     2    1   25 1
     3    1   26 1
     4    1   27 1
     5    2    7 ar
     6    2    3 ar
     7    3    4 ar
     8    3   28 1
     9    4    5 ar
    10    4   29 1
    11    5    6 ar
    12    5   30 1
    13    6   11 1
    14    6    7 ar
    15    7    8 1
    16    8    9 am
    17    8   31 1
    18    9   10 2
    19    9   11 1
    20   11   20 1
    21   11   12 1
    22   12   17 1
    23   12   13 2
    24   13   14 1
    25   13   24 1
    26   14   15 1
    27   14   16 1
    28   16   17 2
    29   17   18 1
    30   18   19 1
    31   19   20 2
    32   19   23 1
    33   20   21 1
    34   21   22 3
    35   23   32 1
    36   23   33 1
    37   24   34 1
    38   24   35 1
    39   24   36 1
@<TRIPOS>MOLECULE
ZINC04096947
   35    37     0     0     0
SMALL
USER_CHARGES

@<TRIPOS>ATOM
      1 C1         -0.0167    1.3824    0.0096 C.ar      1 <0>        -0.1046
      2 C2          1.1697    2.0917    0.0021 C.ar      1 <0>        -0.0611
      3 C3          2.3792    1.4226   -0.0135 C.ar      1 <0>        -0.1124
      4 C4          2.4066    0.0362   -0.0217 C.ar      1 <0>         0.0952
      5 C5          1.2160   -0.6806   -0.0137 C.ar      1 <0>         0.0666
      6 C6          0.0021   -0.0041    0.0020 C.ar      1 <0>         0.0995
      7 O1         -1.1658   -0.7009    0.0099 O.3       1 <0>        -0.4872
      8 O2          1.2387   -2.0413   -0.0217 O.3       1 <0>        -0.4802
      9 O3          3.5971   -0.6212   -0.0380 O.3       1 <0>        -0.4827
     10 C7          1.1446    3.5984    0.0105 C.3       1 <0>         0.1539
     11 H1          0.1698    3.9479   -0.3298 H         1 <0>         0.1019
     12 C8          1.4024    4.1074    1.4362 C.3       1 <0>         0.0433
     13 H2          2.3702    3.7504    1.7884 H         1 <0>         0.1050
     14 C9          1.4006    5.6244    1.3789 C.2       1 <0>         0.3698
     15 O4          0.8837    6.2951    2.2485 O.2       1 <0>        -0.4133
     16 C10         2.0561    6.2383    0.2189 C.ar      1 <0>        -0.2926
     17 C11         2.3318    7.6147    0.1971 C.ar      1 <0>         0.2235
     18 C12         2.9399    8.1703   -0.9143 C.ar      1 <0>        -0.2168
     19 C13         3.2758    7.3680   -1.9980 C.ar      1 <0>         0.2008
     20 C14         3.0108    6.0047   -1.9797 C.ar      1 <0>        -0.1974
     21 C15         2.4052    5.4279   -0.8772 C.ar      1 <0>         0.2087
     22 O5          2.1599    4.0966   -0.8605 O.3       1 <0>        -0.2883
     23 O6          3.8685    7.9221   -3.0854 O.3       1 <0>        -0.4893
     24 O7          2.0039    8.3939    1.2575 O.3       1 <0>        -0.4750
     25 O8          0.3683    3.6508    2.3103 O.3       1 <0>        -0.5315
     26 H3         -0.9596    1.9089    0.0260 H         1 <0>         0.1420
     27 H4          3.3040    1.9803   -0.0197 H         1 <0>         0.1411
     28 H5         -1.5123   -0.8977   -0.8712 H         1 <0>         0.3975
     29 H6          1.2542   -2.4396    0.8593 H         1 <0>         0.3921
     30 H7          3.9506   -0.8164    0.8407 H         1 <0>         0.3909
     31 H8          3.1534    9.2286   -0.9398 H         1 <0>         0.1481
     32 H9          3.2780    5.3929   -2.8287 H         1 <0>         0.1516
     33 H10         4.8345    7.9335   -3.0439 H         1 <0>         0.4042
     34 H11         2.7018    8.4667    1.9228 H         1 <0>         0.4009
     35 H12         0.4729    3.9387    3.2275 H         1 <0>         0.3958
@<TRIPOS>BOND
     1    1    6 ar
     2    1    2 ar
     3    1   26 1
     4    2    3 ar
     5    2   10 1
     6    3    4 ar
     7    3   27 1
     8    4    5 ar
     9    4    9 1
    10    5    6 ar
    11    5    8 1
    12    6    7 1
    13    7   28 1
    14    8   29 1
    15    9   30 1
    16   10   11 1
    17   10   22 1
    18   10   12 1
    19   12   13 1
    20   12   14 1
    21   12   25 1
    22   14   15 2
    23   14   16 1
    24   16   21 ar
    25   16   17 ar
    26   17   18 ar
    27   17   24 1
    28   18   19 ar
    29   18   31 1
    30   19   20 ar
    31   19   23 1
    32   20   21 ar
    33   20   32 1
    34   21   22 1
    35   23   33 1
    36   24   34 1
    37   25   35 1
@<TRIPOS>MOLECULE
ZINC19597194
   29    30     0     0     0
SMALL
USER_CHARGES
2-hydroxy-4-[(2,4,6-trioxohexahydropyrimidin-5-ylidene)methylamino]benzoic acid
@<TRIPOS>ATOM
      1 C1         -0.0583    8.0922   -0.2592 C.ar      1 <0>        -0.2128
      2 C2         -0.0597    9.4538   -0.3601 C.ar      1 <0>        -0.0085
      3 C3         -1.2689   10.1570   -0.3463 C.ar      1 <0>        -0.1630
      4 C4         -2.4809    9.4569   -0.2337 C.ar      1 <0>         0.2135
      5 C5         -2.4677    8.0764   -0.1374 C.ar      1 <0>        -0.2534
      6 C6         -1.2584    7.3928   -0.1527 C.ar      1 <0>         0.1523
      7 N1         -1.2454    6.0033   -0.0553 N.pl3     1 <0>        -0.5988
      8 C7         -0.0710    5.3444    0.0450 C.2       1 <0>         0.3333
      9 C8         -0.0502    3.9626    0.0278 C.2       1 <0>        -0.4425
     10 C9          1.2185    3.2126   -0.0026 C.2       1 <0>         0.5912
     11 O1          2.2875    3.7933   -0.0126 O.2       1 <0>        -0.5146
     12 N2          1.1620    1.8649   -0.0186 N.am      1 <0>        -0.6791
     13 C10        -0.0088    1.2124   -0.0070 C.2       1 <0>         0.7210
     14 O2          0.0095   -0.0027   -0.0221 O.2       1 <0>        -0.5503
     15 N3         -1.1988    1.8289    0.0150 N.am      1 <0>        -0.6775
     16 C11        -1.2957    3.1742    0.0385 C.2       1 <0>         0.5884
     17 O3         -2.3817    3.7220    0.0629 O.2       1 <0>        -0.5328
     18 O4         -3.6585   10.1302   -0.2198 O.3       1 <0>        -0.4565
     19 C12        -1.2707   11.6249   -0.4497 C.2       1 <0>         0.4900
     20 O5         -2.3226   12.2337   -0.4379 O.co2     1 <0>        -0.6118
     21 O6         -0.1058   12.2944   -0.5577 O.co2     1 <0>        -0.7608
     22 H1          0.8781    7.5542   -0.2663 H         1 <0>         0.1266
     23 H2          0.8743    9.9890   -0.4462 H         1 <0>         0.1460
     24 H3         -3.3960    7.5314   -0.0502 H         1 <0>         0.1294
     25 H4         -2.1918    5.4427   -0.0601 H         1 <0>         0.4546
     26 H5          0.8691    5.9075    0.1404 H         1 <0>         0.1842
     27 H6          2.0906    1.2757   -0.0417 H         1 <0>         0.4611
     28 H7         -2.1254    1.2361    0.0141 H         1 <0>         0.4604
     29 H8         -4.6063    9.5789   -0.1315 H         1 <0>         0.4102
@<TRIPOS>BOND
     1    1    6 ar
     2    1    2 ar
     3    1   22 1
     4    2    3 ar
     5    2   23 1
     6    3    4 ar
     7    3   19 1
     8    4    5 ar
     9    4   18 1
    10    5    6 ar
    11    5   24 1
    12    6    7 1
    13    7    8 1
    14    7   25 1
    15    8    9 2
    16    8   26 1
    17    9   16 1
    18    9   10 1
    19   10   11 2
    20   10   12 am
    21   12   13 am
    22   12   27 1
    23   13   14 2
    24   13   15 am
    25   15   16 am
    26   15   28 1
    27   16   17 2
    28   18   29 1
    29   19   20 2
    30   19   21 1
@<TRIPOS>MOLECULE
ZINC37930435
   31    32     0     0     0
SMALL
USER_CHARGES

@<TRIPOS>ATOM
      1 C1         -0.0780    1.2642    0.0262 C.ar      1 <0>        -0.1436
      2 C2          1.0244    2.0923   -0.0119 C.ar      1 <0>        -0.1938
      3 C3          2.3032    1.5509   -0.0440 C.ar      1 <0>         0.2164
      4 C4          2.4705    0.1561   -0.0377 C.ar      1 <0>        -0.1801
      5 C5          1.3457   -0.6750    0.0011 C.ar      1 <0>        -0.0928
      6 C6          0.0799   -0.1186    0.0327 C.ar      1 <0>         0.1171
      7 N1         -1.0466   -0.9493    0.0715 N.pl3     1 <0>        -0.7472
      8 C7         -2.3886   -0.3626    0.1051 C.3       1 <0>         0.1626
      9 H1         -2.3636    0.5652    0.6766 H         1 <0>         0.0967
     10 C8         -2.8519   -0.0654   -1.3307 C.3       1 <0>        -0.1520
     11 C9         -4.3734    0.2551   -1.2921 C.3       1 <0>        -0.5701
     12 S1         -4.9533   -1.0073   -0.0818 S.o2      1 <0>         2.3736
     13 O1         -5.8513   -0.3931    0.8323 O.2       1 <0>        -0.9414
     14 O2         -5.3612   -2.1712   -0.7875 O.2       1 <0>        -0.9377
     15 C10        -3.3666   -1.3550    0.7790 C.3       1 <0>        -0.5901
     16 C11         3.8199   -0.4270   -0.0720 C.2       1 <0>         0.5306
     17 O3          3.9608   -1.6375   -0.1827 O.co2     1 <0>        -0.6851
     18 O4          4.8021    0.2982    0.0102 O.co2     1 <0>        -0.6889
     19 N2          3.4134    2.3862   -0.0828 N.pl3     1 <0>        -0.8677
     20 H2         -1.0695    1.6914    0.0555 H         1 <0>         0.1088
     21 H3          0.8930    3.1642   -0.0170 H         1 <0>         0.1095
     22 H4          1.4655   -1.7483    0.0058 H         1 <0>         0.1223
     23 H5         -0.9385   -1.9133    0.0761 H         1 <0>         0.3980
     24 H6         -2.3050    0.7915   -1.7241 H         1 <0>         0.1044
     25 H7         -2.6750   -0.9360   -1.9623 H         1 <0>         0.0917
     26 H8         -4.5543    1.2654   -0.9251 H         1 <0>         0.1389
     27 H9         -4.8329    0.1048   -2.2691 H         1 <0>         0.1401
     28 H10        -3.0514   -2.3844    0.6081 H         1 <0>         0.1436
     29 H11        -3.4531   -1.1482    1.8457 H         1 <0>         0.1455
     30 H12         3.2961    3.3449   -0.1723 H         1 <0>         0.3733
     31 H13         4.3054    2.0105   -0.0204 H         1 <0>         0.4174
@<TRIPOS>BOND
     1    1    6 ar
     2    1    2 ar
     3    1   20 1
     4    2    3 ar
     5    2   21 1
     6    3    4 ar
     7    3   19 1
     8    4    5 ar
     9    4   16 1
    10    5    6 ar
    11    5   22 1
    12    6    7 1
    13    7    8 1
    14    7   23 1
    15    8    9 1
    16    8   15 1
    17    8   10 1
    18   10   11 1
    19   10   24 1
    20   10   25 1
    21   11   12 1
    22   11   26 1
    23   11   27 1
    24   12   13 2
    25   12   14 2
    26   12   15 1
    27   15   28 1
    28   15   29 1
    29   16   17 2
    30   16   18 1
    31   19   30 1
    32   19   31 1
@<TRIPOS>MOLECULE
ZINC44925925
   23    24     0     0     0
SMALL
USER_CHARGES

@<TRIPOS>ATOM
      1 C1         -0.0168    1.3841    0.0097 C.ar      1 <0>        -0.1258
      2 C2          1.1699    2.0913    0.0021 C.ar      1 <0>        -0.1506
      3 C3          2.3814    1.4143   -0.0135 C.ar      1 <0>         0.2115
      4 C4          2.4007    0.0248   -0.0211 C.ar      1 <0>        -0.1312
      5 C5          1.2140   -0.6821   -0.0131 C.ar      1 <0>        -0.1184
      6 C6          0.0021   -0.0041    0.0020 C.ar      1 <0>         0.1486
      7 N1         -1.2007   -0.7204    0.0096 N.pl3     1 <0>        -0.8878
      8 Br1         4.0511   -0.8980   -0.0430 Br        1 <0>        -0.0591
      9 N2          3.5844    2.1314   -0.0221 N.pl3     1 <0>        -0.7294
     10 C7          3.5640    3.5962   -0.0145 C.3       1 <0>         0.2439
     11 C8          4.9776    4.1184   -0.0262 C.2       1 <0>         0.0300
     12 N3          5.7315    4.3814    1.0313 N.2       1 <0>        -0.3722
     13 N4          6.8701    4.8075    0.6020 N.2       1 <0>        -0.1940
     14 N5          6.8547    4.8203   -0.6855 N.2       1 <0>        -0.1941
     15 N6          5.7080    4.3974   -1.0960 N.2       1 <0>        -0.3721
     16 H1         -0.9593    1.9112    0.0260 H         1 <0>         0.1221
     17 H2          1.1549    3.1712    0.0080 H         1 <0>         0.1313
     18 H3          1.2286   -1.7620   -0.0194 H         1 <0>         0.1239
     19 H4         -2.0472   -0.2469    0.0202 H         1 <0>         0.3939
     20 H5         -1.1876   -1.6903    0.0043 H         1 <0>         0.3929
     21 H6          4.4311    1.6582   -0.0330 H         1 <0>         0.4035
     22 H7          3.0362    3.9568   -0.8974 H         1 <0>         0.0665
     23 H8          3.0542    3.9479    0.8824 H         1 <0>         0.0665
@<TRIPOS>BOND
     1    1    6 ar
     2    1    2 ar
     3    1   16 1
     4    2    3 ar
     5    2   17 1
     6    3    4 ar
     7    3    9 1
     8    4    5 ar
     9    4    8 1
    10    5    6 ar
    11    5   18 1
    12    6    7 1
    13    7   19 1
    14    7   20 1
    15    9   10 1
    16    9   21 1
    17   10   11 1
    18   10   22 1
    19   10   23 1
    20   11   15 2
    21   11   12 1
    22   12   13 1
    23   13   14 2
    24   14   15 1
@<TRIPOS>MOLECULE
ZINC52012270
   46    47     0     0     0
SMALL
USER_CHARGES

@<TRIPOS>ATOM
      1 C1         -0.0187    1.5258    0.0104 C.3       1 <0>        -0.1445
      2 C2          0.0021   -0.0041    0.0020 C.3       1 <0>        -0.0914
      3 H1         -1.0205   -0.3814    0.0098 H         1 <0>         0.0622
      4 C3          0.7182   -0.4975   -1.2568 C.3       1 <0>        -0.1087
      5 C4          0.7390   -2.0273   -1.2652 C.3       1 <0>        -0.1117
      6 C5          1.4790   -2.5342   -0.0257 C.3       1 <0>        -0.1123
      7 C6          0.7628   -2.0407    1.2331 C.3       1 <0>         0.1303
      8 C7          0.7421   -0.5109    1.2415 C.3       1 <0>        -0.0979
      9 C8          1.4917   -2.5400    2.4540 C.2       1 <0>         0.4995
     10 O1          2.6566   -2.2306    2.6375 O.co2     1 <0>        -0.7064
     11 O2          0.9164   -3.2532    3.2583 O.co2     1 <0>        -0.6720
     12 N1         -0.6116   -2.5478    1.2435 N.am      1 <0>        -0.7168
     13 C9         -0.8399   -3.8761    1.2386 C.2       1 <0>         0.7163
     14 O3          0.0949   -4.6535    1.2255 O.2       1 <0>        -0.5703
     15 N2         -2.1043   -4.3426    1.2481 N.am      1 <0>        -0.7409
     16 C10        -2.3524   -5.7864    1.2428 C.3       1 <0>         0.1779
     17 H2         -1.5787   -6.2902    1.8221 H         1 <0>         0.0919
     18 C11        -2.3286   -6.3026   -0.1973 C.3       1 <0>        -0.1290
     19 C12        -3.4146   -5.5955   -1.0106 C.3       1 <0>        -0.1184
     20 C13        -4.7836   -5.8800   -0.3894 C.3       1 <0>        -0.1153
     21 C14        -4.8074   -5.3638    1.0507 C.3       1 <0>        -0.1515
     22 C15        -3.7214   -6.0710    1.8640 C.3       1 <0>         0.0978
     23 H3         -3.9060   -7.1452    1.8600 H         1 <0>         0.0632
     24 O4         -3.7436   -5.5888    3.2090 O.3       1 <0>        -0.5525
     25 H4          1.0039    1.9031    0.0027 H         1 <0>         0.0537
     26 H5         -0.5459    1.8868   -0.8726 H         1 <0>         0.0480
     27 H6         -0.5289    1.8773    0.9072 H         1 <0>         0.0514
     28 H7          0.1910   -0.1364   -2.1398 H         1 <0>         0.0507
     29 H8          1.7408   -0.1202   -1.2645 H         1 <0>         0.0596
     30 H9         -0.2836   -2.4046   -1.2575 H         1 <0>         0.0539
     31 H10         1.2492   -2.3788   -2.1620 H         1 <0>         0.0497
     32 H11         1.4937   -3.6240   -0.0317 H         1 <0>         0.0771
     33 H12         2.5015   -2.1569   -0.0334 H         1 <0>         0.0651
     34 H13         1.7647   -0.1336    1.2338 H         1 <0>         0.0790
     35 H14         0.2319   -0.1594    2.1383 H         1 <0>         0.0565
     36 H15        -1.3573   -1.9276    1.2540 H         1 <0>         0.3762
     37 H16        -2.8500   -3.7224    1.2586 H         1 <0>         0.3838
     38 H17        -1.3533   -6.0999   -0.6399 H         1 <0>         0.0769
     39 H18        -2.5132   -7.3769   -0.2013 H         1 <0>         0.0665
     40 H19        -3.2300   -4.5212   -1.0066 H         1 <0>         0.0649
     41 H20        -3.3977   -5.9632   -2.0365 H         1 <0>         0.0601
     42 H21        -5.5573   -5.3762   -0.9688 H         1 <0>         0.0619
     43 H22        -4.9682   -6.9543   -0.3934 H         1 <0>         0.0618
     44 H23        -4.6228   -4.2896    1.0547 H         1 <0>         0.0695
     45 H24        -5.7827   -5.5665    1.4933 H         1 <0>         0.0635
     46 H25        -4.5832   -5.7358    3.6657 H         1 <0>         0.3710
@<TRIPOS>BOND
     1    1    2 1
     2    1   25 1
     3    1   26 1
     4    1   27 1
     5    2    3 1
     6    2    8 1
     7    2    4 1
     8    4    5 1
     9    4   28 1
    10    4   29 1
    11    5    6 1
    12    5   30 1
    13    5   31 1
    14    6    7 1
    15    6   32 1
    16    6   33 1
    17    7    8 1
    18    7    9 1
    19    7   12 1
    20    8   34 1
    21    8   35 1
    22    9   10 2
    23    9   11 1
    24   12   13 am
    25   12   36 1
    26   13   14 2
    27   13   15 am
    28   15   16 1
    29   15   37 1
    30   16   17 1
    31   16   22 1
    32   16   18 1
    33   18   19 1
    34   18   38 1
    35   18   39 1
    36   19   20 1
    37   19   40 1
    38   19   41 1
    39   20   21 1
    40   20   42 1
    41   20   43 1
    42   21   22 1
    43   21   44 1
    44   21   45 1
    45   22   23 1
    46   22   24 1
    47   24   46 1
@<TRIPOS>MOLECULE
ZINC63006630
   26    27     0     0     0
SMALL
USER_CHARGES

@<TRIPOS>ATOM
      1 C1         -0.0166    1.3735    0.0096 C.ar      1 <0>        -0.1397
      2 C2          1.1867    2.0882    0.0019 C.ar      1 <0>        -0.0289
      3 C3          2.4056    1.4004   -0.0134 C.ar      1 <0>        -0.1397
      4 C4          2.4174    0.0228   -0.0209 C.ar      1 <0>         0.1784
      5 C5          1.2174   -0.6859   -0.0132 C.ar      1 <0>        -0.2318
      6 C6          0.0021   -0.0041    0.0020 C.ar      1 <0>         0.1785
      7 F1         -1.1590   -0.6947    0.0098 F         1 <0>        -0.1221
      8 S1          1.2370   -2.4478   -0.0229 S.3       1 <0>         0.1326
      9 C7          1.2580   -2.8832    1.6843 C.2       1 <0>         0.3873
     10 N1          1.2816   -4.1987    2.0372 N.am      1 <0>        -0.6249
     11 H1          1.2869   -4.8839    1.3506 H         1 <0>         0.4170
     12 C8          1.2979   -4.5505    3.3398 C.2       1 <0>         0.5459
     13 O1          1.3195   -5.7272    3.6649 O.2       1 <0>        -0.5600
     14 C9          1.2902   -3.5444    4.3111 C.2       1 <0>        -0.4106
     15 C10         1.2660   -2.2193    3.8992 C.2       1 <0>         0.4663
     16 N2          1.2560   -1.9303    2.5930 N.2       1 <0>        -0.5651
     17 N3          1.2579   -1.2033    4.8337 N.pl3     1 <0>        -0.8271
     18 F2          3.5935   -0.6418   -0.0361 F         1 <0>        -0.1221
     19 C11         1.1704    3.5598    0.0095 C.2       1 <0>         0.5184
     20 O2          0.1042    4.1597    0.0225 O.co2     1 <0>        -0.6676
     21 O3          2.2231    4.1833    0.0028 O.co2     1 <0>        -0.6676
     22 H2         -0.9587    1.9013    0.0259 H         1 <0>         0.1561
     23 H3          3.3358    1.9491   -0.0197 H         1 <0>         0.1561
     24 H4          1.3025   -3.7939    5.3618 H         1 <0>         0.1463
     25 H5          1.2691   -1.4148    5.7803 H         1 <0>         0.4142
     26 H6          1.2410   -0.2778    4.5438 H         1 <0>         0.4100
@<TRIPOS>BOND
     1    1    6 ar
     2    1    2 ar
     3    1   22 1
     4    2    3 ar
     5    2   19 1
     6    3    4 ar
     7    3   23 1
     8    4    5 ar
     9    4   18 1
    10    5    6 ar
    11    5    8 1
    12    6    7 1
    13    8    9 1
    14    9   16 2
    15    9   10 1
    16   10   11 1
    17   10   12 am
    18   12   13 2
    19   12   14 1
    20   14   15 2
    21   14   24 1
    22   15   16 1
    23   15   17 1
    24   17   25 1
    25   17   26 1
    26   19   20 2
    27   19   21 1
@<TRIPOS>MOLECULE
ZINC04357814
   31    32     0     0     0
SMALL
USER_CHARGES
2-(4-bromophenyl)aminotetrahydropyran-3,4,5-triol
@<TRIPOS>ATOM
      1 C1         -1.2182    1.7493    0.0173 C.ar      1 <0>        -0.1837
      2 C2         -0.0126    1.0758    0.0080 C.ar      1 <0>        -0.0425
      3 C3          1.1765    1.7832    0.0004 C.ar      1 <0>        -0.1406
      4 C4          1.1617    3.1667    0.0075 C.ar      1 <0>        -0.0426
      5 C5         -0.0409    3.8456    0.0226 C.ar      1 <0>        -0.1800
      6 C6         -1.2362    3.1382    0.0307 C.ar      1 <0>         0.2268
      7 N1         -2.4544    3.8223    0.0460 N.pl3     1 <0>        -0.7228
      8 C7         -3.7143    3.0748    0.0545 C.3       1 <0>         0.2848
      9 H1         -3.5474    2.0860    0.4819 H         1 <0>         0.0937
     10 C8         -4.7485    3.8268    0.8963 C.3       1 <0>         0.0850
     11 H2         -4.8858    4.8303    0.4934 H         1 <0>         0.0778
     12 C9         -6.0797    3.0704    0.8510 C.3       1 <0>         0.1238
     13 H3         -5.9548    2.0853    1.3005 H         1 <0>         0.0743
     14 C10        -6.5182    2.9178   -0.6087 C.3       1 <0>         0.0395
     15 H4         -6.6913    3.9029   -1.0419 H         1 <0>         0.0790
     16 C11        -5.4156    2.2008   -1.3923 C.3       1 <0>         0.0377
     17 O1         -4.1978    2.9405   -1.2835 O.3       1 <0>        -0.3867
     18 O2         -7.7231    2.1517   -0.6678 O.3       1 <0>        -0.5565
     19 O3         -7.0708    3.8034    1.5737 O.3       1 <0>        -0.5479
     20 O4         -4.2926    3.9131    2.2479 O.3       1 <0>        -0.5389
     21 Br1         2.8252    0.8573   -0.0203 Br        1 <0>        -0.0555
     22 H5         -2.1461    1.1967    0.0183 H         1 <0>         0.1281
     23 H6          0.0021   -0.0041    0.0020 H         1 <0>         0.1335
     24 H7          2.0914    3.7162    0.0009 H         1 <0>         0.1347
     25 H8         -0.0519    4.9256    0.0278 H         1 <0>         0.1324
     26 H9         -2.4659    4.7922    0.0510 H         1 <0>         0.4065
     27 H10        -5.2712    1.2006   -0.9841 H         1 <0>         0.0675
     28 H11        -5.7039    2.1275   -2.4410 H         1 <0>         0.1090
     29 H12        -8.0589    2.0154   -1.5643 H         1 <0>         0.3905
     30 H13        -7.9408    3.3814    1.5864 H         1 <0>         0.3896
     31 H14        -3.4504    4.3771    2.3500 H         1 <0>         0.3835
@<TRIPOS>BOND
     1    1    6 ar
     2    1    2 ar
     3    1   22 1
     4    2    3 ar
     5    2   23 1
     6    3    4 ar
     7    3   21 1
     8    4    5 ar
     9    4   24 1
    10    5    6 ar
    11    5   25 1
    12    6    7 1
    13    7    8 1
    14    7   26 1
    15    8    9 1
    16    8   17 1
    17    8   10 1
    18   10   11 1
    19   10   12 1
    20   10   20 1
    21   12   13 1
    22   12   14 1
    23   12   19 1
    24   14   15 1
    25   14   16 1
    26   14   18 1
    27   16   17 1
    28   16   27 1
    29   16   28 1
    30   18   29 1
    31   19   30 1
    32   20   31 1
@<TRIPOS>MOLECULE
ZINC08617606
   58    61     0     0     0
SMALL
USER_CHARGES
17-(1,2-dihydroxyethyl)-11,17-dihydroxy-10,13-dimethyl-2,6,7,8,9,11,12,14,15,16-decahydro-1H-cyclopenta[a]phenanthren-3-one
@<TRIPOS>ATOM
      1 C1         -0.5915   -2.8313    0.4359 C.3       1 <0>        -0.1575
      2 C2         -1.5748   -1.7507    0.8942 C.3       1 <0>        -0.0180
      3 C3         -1.1830   -1.4682    2.3333 C.3       1 <0>        -0.1148
      4 C4         -2.3623   -1.1321    3.2359 C.3       1 <0>        -0.1583
      5 C5         -3.4057   -2.2220    3.1081 C.2       1 <0>         0.3888
      6 O1         -3.9096   -2.7463    4.0800 O.2       1 <0>        -0.4564
      7 C6         -3.7699   -2.6105    1.7411 C.2       1 <0>        -0.2393
      8 C7         -2.9416   -2.3463    0.7415 C.2       1 <0>        -0.0188
      9 C8         -3.4046   -2.6244   -0.6815 C.3       1 <0>        -0.0979
     10 C9         -3.4257   -1.2609   -1.3789 C.3       1 <0>        -0.1115
     11 C10        -2.0436   -0.6168   -1.3640 C.3       1 <0>        -0.0626
     12 H1         -2.2210    0.4244   -1.7156 H         1 <0>         0.0777
     13 C11        -1.4201   -0.5200    0.0187 C.3       1 <0>        -0.0529
     14 H2         -2.0104    0.2836    0.5490 H         1 <0>         0.0756
     15 C12         0.0096   -0.0034    0.0166 C.3       1 <0>         0.1163
     16 H3          0.4889   -0.3069    0.9658 H         1 <0>         0.0518
     17 C13         0.9047   -0.5030   -1.1158 C.3       1 <0>        -0.1344
     18 C14         0.1983   -0.4758   -2.4441 C.3       1 <0>        -0.0247
     19 C15        -1.1133   -1.2878   -2.3395 C.3       1 <0>        -0.0859
     20 H4         -0.9056   -2.3164   -2.0270 H         1 <0>         0.0798
     21 C16        -1.5781   -1.3252   -3.8039 C.3       1 <0>        -0.1155
     22 C17        -0.2572   -1.5350   -4.5907 C.3       1 <0>        -0.1540
     23 C18         0.8979   -1.1505   -3.6295 C.3       1 <0>         0.1092
     24 C19         1.6653   -2.3980   -3.2033 C.3       1 <0>         0.0921
     25 H5          0.9746   -3.1161   -2.7613 H         1 <0>         0.1110
     26 C20         2.3394   -3.0246   -4.4256 C.3       1 <0>         0.0358
     27 O2          2.9608   -4.2549   -4.0485 O.3       1 <0>        -0.5599
     28 O3          2.6601   -2.0400   -2.2419 O.3       1 <0>        -0.5398
     29 O4          1.7762   -0.2187   -4.2655 O.3       1 <0>        -0.5473
     30 C21        -0.0769    0.9763   -2.8588 C.3       1 <0>        -0.1332
     31 O5         -0.0071    1.4305    0.0304 O.3       1 <0>        -0.5701
     32 H6          0.4190   -2.4228    0.4267 H         1 <0>         0.0715
     33 H7         -0.6353   -3.6771    1.1221 H         1 <0>         0.0590
     34 H8         -0.8583   -3.1633   -0.5675 H         1 <0>         0.0645
     35 H9         -0.6744   -2.3515    2.7254 H         1 <0>         0.0745
     36 H10        -0.4834   -0.6327    2.3504 H         1 <0>         0.0848
     37 H11        -2.7550   -0.2553    2.9585 H         1 <0>         0.0894
     38 H12        -2.0274   -1.0648    4.2742 H         1 <0>         0.0928
     39 H13        -4.7114   -3.1110    1.5517 H         1 <0>         0.1365
     40 H14        -2.7261   -3.3015   -1.1869 H         1 <0>         0.0844
     41 H15        -4.4108   -3.0449   -0.6631 H         1 <0>         0.0776
     42 H16        -3.7534   -1.3872   -2.4108 H         1 <0>         0.0748
     43 H17        -4.1289   -0.6048   -0.8619 H         1 <0>         0.0668
     44 H18         1.7933    0.1506   -1.1763 H         1 <0>         0.0639
     45 H19         1.2699   -1.5039   -0.8762 H         1 <0>         0.0993
     46 H20        -2.2521   -2.1721   -3.9600 H         1 <0>         0.0670
     47 H21        -2.0690   -0.3991   -4.0884 H         1 <0>         0.0737
     48 H22        -0.2374   -0.8968   -5.4735 H         1 <0>         0.0786
     49 H23        -0.1599   -2.5810   -4.8854 H         1 <0>         0.0698
     50 H24         1.5913   -3.2162   -5.1948 H         1 <0>         0.0572
     51 H25         3.0938   -2.3409   -4.8148 H         1 <0>         0.0490
     52 H26         3.4088   -4.7084   -4.7756 H         1 <0>         0.3814
     53 H27         3.3102   -1.4024   -2.5674 H         1 <0>         0.3744
     54 H28         2.2516   -0.5819   -5.0253 H         1 <0>         0.3696
     55 H29        -0.7200    1.4502   -2.1172 H         1 <0>         0.0692
     56 H30         0.8654    1.5204   -2.9234 H         1 <0>         0.0583
     57 H31        -0.5714    0.9893   -3.8301 H         1 <0>         0.0495
     58 H32         0.8716    1.8341    0.0300 H         1 <0>         0.3774
@<TRIPOS>BOND
     1    1    2 1
     2    1   32 1
     3    1   33 1
     4    1   34 1
     5    2    8 1
     6    2   13 1
     7    2    3 1
     8    3    4 1
     9    3   35 1
    10    3   36 1
    11    4    5 1
    12    4   37 1
    13    4   38 1
    14    5    6 2
    15    5    7 1
    16    7    8 2
    17    7   39 1
    18    8    9 1
    19    9   10 1
    20    9   40 1
    21    9   41 1
    22   10   11 1
    23   10   42 1
    24   10   43 1
    25   11   12 1
    26   11   19 1
    27   11   13 1
    28   13   14 1
    29   13   15 1
    30   15   16 1
    31   15   17 1
    32   15   31 1
    33   17   18 1
    34   17   44 1
    35   17   45 1
    36   18   23 1
    37   18   19 1
    38   18   30 1
    39   19   20 1
    40   19   21 1
    41   21   22 1
    42   21   46 1
    43   21   47 1
    44   22   23 1
    45   22   48 1
    46   22   49 1
    47   23   24 1
    48   23   29 1
    49   24   25 1
    50   24   26 1
    51   24   28 1
    52   26   27 1
    53   26   50 1
    54   26   51 1
    55   27   52 1
    56   28   53 1
    57   29   54 1
    58   30   55 1
    59   30   56 1
    60   30   57 1
    61   31   58 1
@<TRIPOS>MOLECULE
ZINC33957368
   39    42     0     0     0
SMALL
USER_CHARGES

@<TRIPOS>ATOM
      1 C1         -0.0191    1.5570    0.0106 C.3       1 <0>        -0.1201
      2 C2          1.5303    1.7555   -0.0031 C.3       1 <0>        -0.0921
      3 H1          1.8884    2.7850   -0.0075 H         1 <0>         0.1108
      4 C3          1.9648    0.8583   -1.2096 C.3       1 <0>        -0.0805
      5 H2          2.0397    1.4120   -2.1455 H         1 <0>         0.0995
      6 C4          3.3140    0.2697   -0.7545 C.3       1 <0>        -0.1455
      7 C5          3.3222    0.3072    0.7589 C.2       1 <0>         0.1015
      8 N1          4.2833   -0.0494    1.5255 N.2       1 <0>        -0.2390
      9 N2          5.4768   -0.5331    0.9738 N.am      1 <0>        -0.5835
     10 C6          6.4888   -0.9086    1.7809 C.2       1 <0>         0.7361
     11 O1          7.5246   -1.3284    1.3020 O.2       1 <0>        -0.5891
     12 N3          6.3526   -0.8186    3.1187 N.am      1 <0>        -0.8460
     13 C7          1.9674    0.8673    1.2072 C.3       1 <0>        -0.0256
     14 H3          1.9925    1.4020    2.1566 H         1 <0>         0.1089
     15 C8          0.9760   -0.3374    1.1748 C.3       1 <0>        -0.0867
     16 H4          0.4704   -0.5110    2.1247 H         1 <0>         0.1013
     17 C9          0.0021   -0.0041    0.0020 C.3       1 <0>        -0.0868
     18 H5         -0.9686   -0.4995    0.0241 H         1 <0>         0.1115
     19 C10         0.9109   -0.2741   -1.2663 C.3       1 <0>        -0.0883
     20 H6          0.3743   -0.3164   -2.2141 H         1 <0>         0.1121
     21 C11         1.5861   -1.6027   -0.8672 C.3       1 <0>        -0.0579
     22 C12         1.8133   -1.5202    0.7076 C.2       1 <0>         0.0990
     23 N4          2.5346   -2.2773    1.4460 N.2       1 <0>        -0.2407
     24 N5          2.6038   -2.0491    2.8266 N.am      1 <0>        -0.5761
     25 C13         3.3632   -2.8462    3.6040 C.2       1 <0>         0.7379
     26 O2          3.4233   -2.6482    4.8022 O.2       1 <0>        -0.5881
     27 N6          4.0561   -3.8626    3.0534 N.am      1 <0>        -0.8490
     28 H7         -0.4725    1.9533    0.9192 H         1 <0>         0.0769
     29 H8         -0.4898    1.9630   -0.8848 H         1 <0>         0.0828
     30 H9          3.4076   -0.7591   -1.1020 H         1 <0>         0.1076
     31 H10         4.1340    0.8715   -1.1463 H         1 <0>         0.0819
     32 H11         5.5748   -0.5979    0.0109 H         1 <0>         0.3994
     33 H12         5.5263   -0.4837    3.5007 H         1 <0>         0.4070
     34 H13         7.0810   -1.0888    3.6996 H         1 <0>         0.4138
     35 H14         0.9432   -2.4444   -1.1249 H         1 <0>         0.0933
     36 H15         2.5513   -1.6990   -1.3642 H         1 <0>         0.0947
     37 H16         2.1051   -1.3176    3.2229 H         1 <0>         0.3998
     38 H17         4.0082   -4.0206    2.0975 H         1 <0>         0.4059
     39 H18         4.6026   -4.4363    3.6129 H         1 <0>         0.4133
@<TRIPOS>BOND
     1    1   17 1
     2    1    2 1
     3    1   28 1
     4    1   29 1
     5    2    3 1
     6    2   13 1
     7    2    4 1
     8    4    5 1
     9    4   19 1
    10    4    6 1
    11    6    7 1
    12    6   30 1
    13    6   31 1
    14    7    8 2
    15    7   13 1
    16    8    9 1
    17    9   10 am
    18    9   32 1
    19   10   11 2
    20   10   12 am
    21   12   33 1
    22   12   34 1
    23   13   14 1
    24   13   15 1
    25   15   16 1
    26   15   22 1
    27   15   17 1
    28   17   18 1
    29   17   19 1
    30   19   20 1
    31   19   21 1
    32   21   22 1
    33   21   35 1
    34   21   36 1
    35   22   23 2
    36   23   24 1
    37   24   25 am
    38   24   37 1
    39   25   26 2
    40   25   27 am
    41   27   38 1
    42   27   39 1
@<TRIPOS>MOLECULE
ZINC40313457
   34    36     0     0     0
SMALL
USER_CHARGES

@<TRIPOS>ATOM
      1 C1         -0.0385    1.3823   -0.0636 C.ar      1 <0>        -0.1269
      2 C2          1.0486    2.1170   -0.4999 C.ar      1 <0>        -0.1036
      3 C3          2.2009    1.4772   -0.9160 C.ar      1 <0>        -0.1212
      4 C4          2.2713    0.0922   -0.8984 C.ar      1 <0>         0.0900
      5 C5          1.1745   -0.6454   -0.4609 C.ar      1 <0>         0.0798
      6 C6          0.0222    0.0013   -0.0429 C.ar      1 <0>        -0.1184
      7 N1          1.2385   -2.0487   -0.4486 N.am      1 <0>        -0.5518
      8 C7          2.5630   -2.6747   -0.6024 C.3       1 <0>         0.0694
      9 C8          3.3175   -1.9015   -1.6933 C.3       1 <0>         0.0635
     10 H1          2.7766   -1.9789   -2.6364 H         1 <0>         0.1070
     11 O1          3.4098   -0.5287   -1.3052 O.3       1 <0>        -0.2814
     12 C9          4.7007   -2.4773   -1.8556 C.2       1 <0>         0.5301
     13 O2          5.6730   -1.8060   -1.5818 O.2       1 <0>        -0.5039
     14 N2          4.8572   -3.7383   -2.3049 N.am      1 <0>        -0.8460
     15 C10         0.1268   -2.7962   -0.3008 C.2       1 <0>         0.6280
     16 O3         -0.9419   -2.2593   -0.0699 O.2       1 <0>        -0.5215
     17 C11         0.2011   -4.2047   -0.4139 C.2       1 <0>        -0.3888
     18 C12        -0.7930   -5.1108   -0.7837 C.2       1 <0>         0.2883
     19 C13        -0.4084   -6.4378   -0.8005 C.2       1 <0>        -0.2310
     20 C14         0.8636   -6.7580   -0.4684 C.2       1 <0>        -0.1803
     21 S1          1.5914   -5.2831   -0.1286 S.3       1 <0>         0.1909
     22 N3         -2.0839   -4.7060   -1.1127 N.pl3     1 <0>        -0.8335
     23 H2         -0.9343    1.8880    0.2657 H         1 <0>         0.1297
     24 H3          0.9969    3.1957   -0.5161 H         1 <0>         0.1319
     25 H4          3.0471    2.0562   -1.2553 H         1 <0>         0.1374
     26 H5         -0.8267   -0.5726    0.2984 H         1 <0>         0.1750
     27 H6          3.1108   -2.6170    0.3381 H         1 <0>         0.1022
     28 H7          2.4472   -3.7168   -0.9005 H         1 <0>         0.1146
     29 H8          4.0796   -4.2752   -2.5238 H         1 <0>         0.4031
     30 H9          5.7475   -4.1090   -2.4093 H         1 <0>         0.4138
     31 H10        -1.1133   -7.2088   -1.0746 H         1 <0>         0.1412
     32 H11         1.3112   -7.7403   -0.4341 H         1 <0>         0.1927
     33 H12        -2.3178   -3.7649   -1.0893 H         1 <0>         0.4161
     34 H13        -2.7493   -5.3650   -1.3652 H         1 <0>         0.4037
@<TRIPOS>BOND
     1    1    6 ar
     2    1    2 ar
     3    1   23 1
     4    2    3 ar
     5    2   24 1
     6    3    4 ar
     7    3   25 1
     8    4   11 1
     9    4    5 ar
    10    5    6 ar
    11    5    7 1
    12    6   26 1
    13    7    8 1
    14    7   15 am
    15    8    9 1
    16    8   27 1
    17    8   28 1
    18    9   10 1
    19    9   11 1
    20    9   12 1
    21   12   13 2
    22   12   14 am
    23   14   29 1
    24   14   30 1
    25   15   16 2
    26   15   17 1
    27   17   21 1
    28   17   18 2
    29   18   19 1
    30   18   22 1
    31   19   20 2
    32   19   31 1
    33   20   21 1
    34   20   32 1
    35   22   33 1
    36   22   34 1
@<TRIPOS>MOLECULE
ZINC15568940
   56    59     0     0     0
SMALL
NO_CHARGES

@<TRIPOS>ATOM
      1 C1         -1.0471    1.4861   -0.2693 C.3       1 <0>        -0.1564
      2 C2         -1.1211   -0.0420   -0.2798 C.3       1 <0>        -0.0382
      3 C3         -2.4553   -0.4959    0.2809 C.3       1 <0>        -0.1252
      4 C4         -2.6097    0.1510    1.6664 C.3       1 <0>         0.1089
      5 H1         -3.5460   -0.1841    2.1128 H         1 <0>         0.0561
      6 C5         -1.4559   -0.2188    2.5940 C.3       1 <0>        -0.0512
      7 H2         -1.4916   -1.2880    2.8026 H         1 <0>         0.0833
      8 C6         -0.0947    0.1303    1.9713 C.3       1 <0>        -0.0789
      9 H3         -0.0287    1.2065    1.8114 H         1 <0>         0.1037
     10 C7         -0.0156   -0.6290    0.6385 C.3       1 <0>        -0.0811
     11 H4         -0.1726   -1.6972    0.7881 H         1 <0>         0.0778
     12 C8          1.2470   -0.3714   -0.1913 C.3       1 <0>        -0.1121
     13 C9          0.7948   -0.7310   -1.6330 C.3       1 <0>        -0.1560
     14 C10        -0.7455   -0.5684   -1.6611 C.3       1 <0>         0.1132
     15 C11        -1.1527    0.4368   -2.7402 C.3       1 <0>         0.0931
     16 H5         -2.2304    0.5957   -2.7006 H         1 <0>         0.1089
     17 C12        -0.7679   -0.1088   -4.1168 C.3       1 <0>         0.0367
     18 O1         -1.2514    0.7739   -5.1313 O.3       1 <0>        -0.5603
     19 O2         -0.4797    1.6770   -2.5143 O.3       1 <0>        -0.5312
     20 O3         -1.3723   -1.8307   -1.8972 O.3       1 <0>        -0.5466
     21 C13         1.0284   -0.3220    2.9063 C.3       1 <0>        -0.1144
     22 C14         0.9497    0.4609    4.2208 C.3       1 <0>        -0.0957
     23 C15        -0.4420    0.2778    4.7966 C.2       1 <0>        -0.0234
     24 C16        -0.5678   -0.1133    6.0573 C.2       1 <0>        -0.2324
     25 C17        -1.8996   -0.3224    6.6460 C.2       1 <0>         0.4079
     26 O4         -2.0206   -0.6405    7.8143 O.2       1 <0>        -0.4621
     27 C18        -3.0833   -0.1384    5.7891 C.2       1 <0>        -0.2238
     28 C19        -2.9338    0.2599    4.5356 C.2       1 <0>        -0.0641
     29 C20        -1.5944    0.5561    3.9076 C.3       1 <0>        -0.0109
     30 C21        -1.5608    2.0486    3.5728 C.3       1 <0>        -0.1333
     31 O5         -2.6477    1.5715    1.5158 O.3       1 <0>        -0.5429
     32 H6         -0.1185    1.8081   -0.7407 H         1 <0>         0.0646
     33 H7         -1.8946    1.8947   -0.8196 H         1 <0>         0.0519
     34 H8         -1.0753    1.8442    0.7598 H         1 <0>         0.1013
     35 H9         -3.2635   -0.1690   -0.3735 H         1 <0>         0.0663
     36 H10        -2.4686   -1.5817    0.3747 H         1 <0>         0.0769
     37 H11         1.5420    0.6761   -0.1296 H         1 <0>         0.0738
     38 H12         2.0599   -1.0218    0.1314 H         1 <0>         0.0678
     39 H13         1.2558   -0.0518   -2.3500 H         1 <0>         0.0661
     40 H14         1.0666   -1.7609   -1.8644 H         1 <0>         0.0767
     41 H15         0.3172   -0.1840   -4.1876 H         1 <0>         0.0502
     42 H16        -1.2102   -1.0957   -4.2531 H         1 <0>         0.0519
     43 H17        -1.0431    0.4898   -6.0318 H         1 <0>         0.3808
     44 H18         0.4848    1.6107   -2.5355 H         1 <0>         0.3672
     45 H19        -1.1698   -2.2150   -2.7611 H         1 <0>         0.3717
     46 H20         0.9228   -1.3873    3.1115 H         1 <0>         0.0649
     47 H21         1.9922   -0.1381    2.4315 H         1 <0>         0.0736
     48 H22         1.6914    0.0782    4.9220 H         1 <0>         0.0789
     49 H23         1.1332    1.5184    4.0309 H         1 <0>         0.0861
     50 H24         0.3148   -0.2793    6.6571 H         1 <0>         0.1352
     51 H25        -4.0710   -0.3276    6.1828 H         1 <0>         0.1369
     52 H26        -3.8218    0.3782    3.9323 H         1 <0>         0.1262
     53 H27        -2.5377    2.3601    3.2029 H         1 <0>         0.0947
     54 H28        -1.3139    2.6167    4.4696 H         1 <0>         0.0428
     55 H29        -0.8070    2.2324    2.8072 H         1 <0>         0.0752
     56 H30        -3.3765    1.8893    0.9654 H         1 <0>         0.3688
@<TRIPOS>BOND
     1    1    2 1
     2    1   32 1
     3    1   33 1
     4    1   34 1
     5    2   10 1
     6    2   14 1
     7    2    3 1
     8    3    4 1
     9    3   35 1
    10    3   36 1
    11    4    5 1
    12    4    6 1
    13    4   31 1
    14    6    7 1
    15    6   29 1
    16    6    8 1
    17    8    9 1
    18    8   10 1
    19    8   21 1
    20   10   11 1
    21   10   12 1
    22   12   13 1
    23   12   37 1
    24   12   38 1
    25   13   14 1
    26   13   39 1
    27   13   40 1
    28   14   15 1
    29   14   20 1
    30   15   16 1
    31   15   17 1
    32   15   19 1
    33   17   18 1
    34   17   41 1
    35   17   42 1
    36   18   43 1
    37   19   44 1
    38   20   45 1
    39   21   22 1
    40   21   46 1
    41   21   47 1
    42   22   23 1
    43   22   48 1
    44   22   49 1
    45   23   29 1
    46   23   24 2
    47   24   25 1
    48   24   50 1
    49   25   26 2
    50   25   27 1
    51   27   28 2
    52   27   51 1
    53   28   29 1
    54   28   52 1
    55   29   30 1
    56   30   53 1
    57   30   54 1
    58   30   55 1
    59   31   56 1
@<TRIPOS>MOLECULE
ZINC21508724
   28    29     0     0     0
SMALL
USER_CHARGES
3-amino-4-hydroxy-N-(5-methylthiazol-2-yl)benzenesulfonamide
@<TRIPOS>ATOM
      1 C1         -5.4306   -4.4132   -3.8116 C.3       1 <0>        -0.0346
      2 C2         -4.2124   -4.4621   -2.9258 C.2       1 <0>        -0.3028
      3 C3         -2.9716   -3.9611   -3.1348 C.2       1 <0>         0.0963
      4 N1         -2.0589   -4.1284   -2.1961 N.2       1 <0>        -0.6392
      5 C4         -2.3374   -4.7769   -1.0813 C.2       1 <0>         0.4224
      6 S1         -4.0064   -5.1976   -1.3105 S.3       1 <0>        -0.0445
      7 N2         -1.5113   -5.0475   -0.0017 N.2       1 <0>        -0.9969
      8 S2          0.0638   -4.5364   -0.0157 S.o2      1 <0>         2.6294
      9 O1          0.6082   -4.9326   -1.2670 O.2       1 <0>        -1.0097
     10 O2          0.6319   -4.9373    1.2236 O.2       1 <0>        -0.9910
     11 C5          0.0398   -2.7745   -0.0121 C.ar      1 <0>        -0.6478
     12 C6          0.0417   -2.0873    1.1876 C.ar      1 <0>        -0.0452
     13 C7          0.0229   -0.7046    1.1966 C.ar      1 <0>        -0.1482
     14 C8          0.0021   -0.0041    0.0020 C.ar      1 <0>         0.1064
     15 C9         -0.0057   -0.6959   -1.2072 C.ar      1 <0>         0.1091
     16 C10         0.0195   -2.0829   -1.2086 C.ar      1 <0>        -0.0395
     17 N3         -0.0326    0.0068   -2.4174 N.pl3     1 <0>        -0.9033
     18 O3         -0.0164    1.3559    0.0095 O.3       1 <0>        -0.5065
     19 H1         -5.1878   -3.8748   -4.7396 H         1 <0>         0.0642
     20 H2         -6.2446   -3.8913   -3.2871 H         1 <0>         0.0536
     21 H3         -5.7486   -5.4378   -4.0546 H         1 <0>         0.0543
     22 H4         -2.7355   -3.4333   -4.0470 H         1 <0>         0.1393
     23 H5          0.0583   -2.6318    2.1201 H         1 <0>         0.1357
     24 H6          0.0242   -0.1709    2.1355 H         1 <0>         0.1264
     25 H7          0.0183   -2.6222   -2.1443 H         1 <0>         0.1454
     26 H8         -0.0387   -0.5408   -3.3714 H         1 <0>         0.4232
     27 H9         -0.0476    1.1067   -2.4145 H         1 <0>         0.3939
     28 H10        -0.0329    1.9110   -0.9400 H         1 <0>         0.4098
@<TRIPOS>BOND
     1    1    2 1
     2    1   19 1
     3    1   20 1
     4    1   21 1
     5    2    6 1
     6    2    3 2
     7    3    4 1
     8    3   22 1
     9    4    5 2
    10    5    6 1
    11    5    7 1
    12    7    8 1
    13    8    9 2
    14    8   10 2
    15    8   11 1
    16   11   16 ar
    17   11   12 ar
    18   12   13 ar
    19   12   23 1
    20   13   14 ar
    21   13   24 1
    22   14   15 ar
    23   14   18 1
    24   15   16 ar
    25   15   17 1
    26   16   25 1
    27   17   26 1
    28   17   27 1
    29   18   28 1
@<TRIPOS>MOLECULE
ZINC39593265
   39    42     0     0     0
SMALL
USER_CHARGES

@<TRIPOS>ATOM
      1 C1          0.0072    1.4160    0.4541 C.ar      1 <0>        -0.1593
      2 C2          1.1991    2.1085    0.4468 C.ar      1 <0>        -0.0602
      3 C3          2.3966    1.4327    0.2016 C.ar      1 <0>        -0.0568
      4 C4          2.3794    0.0507   -0.0363 C.ar      1 <0>         0.1468
      5 C5          1.1770   -0.6333   -0.0265 C.ar      1 <0>        -0.1823
      6 C6         -0.0075    0.0471    0.2182 C.ar      1 <0>         0.1134
      7 O1         -1.1863   -0.6284    0.2275 O.3       1 <0>        -0.5010
      8 O2          3.5394   -0.6140   -0.2761 O.3       1 <0>        -0.4727
      9 C7          3.6729    2.1688    0.1924 C.2       1 <0>         0.0383
     10 N1          4.7849    1.5378   -0.0359 N.2       1 <0>        -0.1850
     11 N2          5.9849    2.2519   -0.1497 N.pl3     1 <0>        -0.4880
     12 C8          7.3367    1.6847   -0.2894 C.3       1 <0>         0.4412
     13 H1          7.4109    1.0933   -1.2020 H         1 <0>         0.0673
     14 N3          8.2108    2.8679   -0.3677 N.pl3     1 <0>        -0.6777
     15 N4          7.3672    3.9817   -0.2747 N.2       1 <0>        -0.3415
     16 C9          6.1308    3.6294   -0.1589 C.2       1 <0>         0.4216
     17 S1          4.7899    4.7645   -0.0238 S.3       1 <0>        -0.8028
     18 C10         7.6900    0.8323    0.9311 C.3       1 <0>        -0.0372
     19 H2          7.5654    1.4056    1.8497 H         1 <0>         0.1423
     20 C11         9.1024    0.2961    0.8205 C.2       1 <0>        -0.1408
     21 C12         8.9623   -1.0282    0.8042 C.2       1 <0>        -0.0773
     22 C13        10.3251   -1.6886    0.6961 C.3       1 <0>        -0.0428
     23 C14        11.2772   -0.5709    0.2175 C.3       1 <0>        -0.1182
     24 C15        10.5519    0.6963    0.7245 C.3       1 <0>        -0.0599
     25 N5          7.6441   -1.3555    0.8898 N.2       1 <0>        -0.1665
     26 N6          6.8733   -0.3930    0.9659 N.2       1 <0>        -0.1195
     27 H3         -0.9177    1.9387    0.6482 H         1 <0>         0.1297
     28 H4          1.2070    3.1728    0.6303 H         1 <0>         0.1397
     29 H5          1.1600   -1.6975   -0.2097 H         1 <0>         0.1301
     30 H6         -1.6205   -0.6738   -0.6354 H         1 <0>         0.3872
     31 H7          3.9681   -0.9567    0.5201 H         1 <0>         0.3927
     32 H8          3.6837    3.2331    0.3756 H         1 <0>         0.2068
     33 H9          9.1760    2.8742   -0.4638 H         1 <0>         0.4325
     34 H10        10.6417   -2.0646    1.6689 H         1 <0>         0.0833
     35 H11        10.2962   -2.4989   -0.0325 H         1 <0>         0.0807
     36 H12        12.2592   -0.6700    0.6800 H         1 <0>         0.0855
     37 H13        11.3580   -0.5659   -0.8695 H         1 <0>         0.0786
     38 H14        10.6738    1.5135    0.0136 H         1 <0>         0.0817
     39 H15        10.9319    0.9846    1.7046 H         1 <0>         0.0904
@<TRIPOS>BOND
     1    1    6 ar
     2    1    2 ar
     3    1   27 1
     4    2    3 ar
     5    2   28 1
     6    3    4 ar
     7    3    9 1
     8    4    5 ar
     9    4    8 1
    10    5    6 ar
    11    5   29 1
    12    6    7 1
    13    7   30 1
    14    8   31 1
    15    9   10 2
    16    9   32 1
    17   10   11 1
    18   11   16 1
    19   11   12 1
    20   12   13 1
    21   12   14 1
    22   12   18 1
    23   14   15 1
    24   14   33 1
    25   15   16 2
    26   16   17 1
    27   18   19 1
    28   18   26 1
    29   18   20 1
    30   20   24 1
    31   20   21 2
    32   21   22 1
    33   21   25 1
    34   22   23 1
    35   22   34 1
    36   22   35 1
    37   23   24 1
    38   23   36 1
    39   23   37 1
    40   24   38 1
    41   24   39 1
    42   25   26 2
@<TRIPOS>MOLECULE
ZINC43741490
   51    54     0     0     0
SMALL
USER_CHARGES

@<TRIPOS>ATOM
      1 C1         -0.0189    1.5414    0.0105 C.3       1 <0>        -0.1461
      2 C2          0.0021   -0.0041    0.0020 C.3       1 <0>        -0.0403
      3 C3          0.6392   -0.4219   -1.3020 C.3       1 <0>        -0.0875
      4 C4          1.1155   -1.8682   -1.3031 C.3       1 <0>        -0.1066
      5 C5          2.1075   -2.0568   -0.1483 C.3       1 <0>        -0.0409
      6 H1          2.9087   -1.3219   -0.2375 H         1 <0>         0.0832
      7 C6          2.6918   -3.4424   -0.2354 C.ar      1 <0>        -0.0526
      8 C7          3.7170   -3.6809   -1.1349 C.ar      1 <0>        -0.1064
      9 C8          4.2734   -4.9402   -1.2446 C.ar      1 <0>        -0.1346
     10 C9          3.8111   -5.9829   -0.4524 C.ar      1 <0>         0.0937
     11 C10         2.7860   -5.7586    0.4508 C.ar      1 <0>        -0.1090
     12 C11         2.2246   -4.4867    0.5600 C.ar      1 <0>        -0.0144
     13 C12         1.1257   -4.2499    1.5235 C.2       1 <0>         0.1463
     14 N1          0.8386   -5.1085    2.4457 N.2       1 <0>        -0.3418
     15 O1         -0.2195   -4.8488    3.3502 O.3       1 <0>        -0.1909
     16 C13        -0.4256   -5.8819    4.3157 C.3       1 <0>         0.0071
     17 C14        -1.5689   -5.5024    5.2212 C.2       1 <0>         0.5051
     18 O2         -2.1530   -4.4452    5.0551 O.co2     1 <0>        -0.6767
     19 O3         -1.9097   -6.2526    6.1198 O.co2     1 <0>        -0.6865
     20 C15         0.3481   -2.9529    1.3889 C.3       1 <0>        -0.1142
     21 C16         1.3698   -1.8396    1.1633 C.3       1 <0>        -0.0637
     22 H2          2.1177   -1.9180    1.9677 H         1 <0>         0.0646
     23 C17         0.7502   -0.4574    1.2568 C.3       1 <0>        -0.0629
     24 H3          1.5312    0.2848    1.5226 H         1 <0>         0.0814
     25 C18        -0.3482   -0.4850    2.3534 C.3       1 <0>        -0.1560
     26 C19        -1.6438   -0.8741    1.6156 C.3       1 <0>         0.0640
     27 H4         -1.8242   -1.9459    1.6941 H         1 <0>         0.0782
     28 C20        -1.4487   -0.4746    0.1418 C.3       1 <0>         0.1212
     29 H5         -2.1239    0.3553   -0.1032 H         1 <0>         0.0646
     30 O4         -1.7256   -1.5745   -0.7217 O.3       1 <0>        -0.5532
     31 O5         -2.7554   -0.1611    2.1697 O.3       1 <0>        -0.5737
     32 O6          4.3631   -7.2198   -0.5641 O.3       1 <0>        -0.4983
     33 H6          1.0037    1.9187    0.0028 H         1 <0>         0.0589
     34 H7         -0.5461    1.9025   -0.8725 H         1 <0>         0.0555
     35 H8         -0.5291    1.8929    0.9073 H         1 <0>         0.0592
     36 H9         -0.0820   -0.2821   -2.1106 H         1 <0>         0.0664
     37 H10         1.4953    0.2318   -1.4982 H         1 <0>         0.0553
     38 H11         0.2774   -2.5495   -1.1851 H         1 <0>         0.0854
     39 H12         1.6199   -2.0863   -2.2490 H         1 <0>         0.0586
     40 H13         4.0836   -2.8762   -1.7550 H         1 <0>         0.1293
     41 H14         5.0719   -5.1155   -1.9508 H         1 <0>         0.1277
     42 H15         2.4240   -6.5686    1.0679 H         1 <0>         0.1376
     43 H16        -0.6614   -6.8152    3.8044 H         1 <0>         0.0529
     44 H17         0.4799   -6.0112    4.9085 H         1 <0>         0.0523
     45 H18        -0.3346   -3.0237    0.5449 H         1 <0>         0.1006
     46 H19        -0.2123   -2.7831    2.3081 H         1 <0>         0.0983
     47 H20        -0.1092   -1.2135    3.1294 H         1 <0>         0.0817
     48 H21        -0.4569    0.5029    2.8139 H         1 <0>         0.0737
     49 H22        -2.6337   -1.9017   -0.6630 H         1 <0>         0.3790
     50 H23        -2.9182   -0.3509    3.1038 H         1 <0>         0.3857
     51 H24         5.1158   -7.3692    0.0243 H         1 <0>         0.3886
@<TRIPOS>BOND
     1    1    2 1
     2    1   33 1
     3    1   34 1
     4    1   35 1
     5    2   23 1
     6    2   28 1
     7    2    3 1
     8    3    4 1
     9    3   36 1
    10    3   37 1
    11    4    5 1
    12    4   38 1
    13    4   39 1
    14    5    6 1
    15    5   21 1
    16    5    7 1
    17    7   12 ar
    18    7    8 ar
    19    8    9 ar
    20    8   40 1
    21    9   10 ar
    22    9   41 1
    23   10   11 ar
    24   10   32 1
    25   11   12 ar
    26   11   42 1
    27   12   13 1
    28   13   14 2
    29   13   20 1
    30   14   15 1
    31   15   16 1
    32   16   17 1
    33   16   43 1
    34   16   44 1
    35   17   18 2
    36   17   19 1
    37   20   21 1
    38   20   45 1
    39   20   46 1
    40   21   22 1
    41   21   23 1
    42   23   24 1
    43   23   25 1
    44   25   26 1
    45   25   47 1
    46   25   48 1
    47   26   27 1
    48   26   28 1
    49   26   31 1
    50   28   29 1
    51   28   30 1
    52   30   49 1
    53   31   50 1
    54   32   51 1
@<TRIPOS>MOLECULE
ZINC52011739
   43    44     0     0     0
SMALL
USER_CHARGES

@<TRIPOS>ATOM
      1 C1         -0.0187    1.5258    0.0104 C.3       1 <0>        -0.1149
      2 C2          1.4167    2.0553   -0.0004 C.3       1 <0>        -0.1157
      3 C3          2.1567    1.5485    1.2391 C.3       1 <0>        -0.1051
      4 C4          2.1775    0.0187    1.2307 C.3       1 <0>         0.1300
      5 C5          0.7421   -0.5109    1.2415 C.3       1 <0>        -0.1125
      6 C6          0.0021   -0.0041    0.0020 C.3       1 <0>        -0.1124
      7 C7          2.9063   -0.4805    2.4516 C.2       1 <0>         0.5008
      8 O1          2.4964   -0.1976    3.5644 O.co2     1 <0>        -0.7058
      9 O2          3.9059   -1.1673    2.3265 O.co2     1 <0>        -0.6742
     10 N1          2.8632   -0.4538    0.0254 N.am      1 <0>        -0.7169
     11 C8          3.0022   -1.7759   -0.1964 C.2       1 <0>         0.7166
     12 O3          2.5586   -2.5765    0.6040 O.2       1 <0>        -0.5708
     13 N2          3.6331   -2.2105   -1.3052 N.am      1 <0>        -0.7418
     14 C9          3.7842   -3.6476   -1.5462 C.3       1 <0>         0.1810
     15 H1          2.9036   -4.1727   -1.1761 H         1 <0>         0.0882
     16 C10         5.0275   -4.1592   -0.8160 C.3       1 <0>        -0.1313
     17 C11         6.2636   -3.4222   -1.3355 C.3       1 <0>        -0.1186
     18 C12         6.4141   -3.6745   -2.8371 C.3       1 <0>        -0.1156
     19 C13         5.1708   -3.1629   -3.5673 C.3       1 <0>        -0.1505
     20 C14         3.9348   -3.8999   -3.0478 C.3       1 <0>         0.0981
     21 H2          4.0472   -4.9691   -3.2271 H         1 <0>         0.0640
     22 O4          2.7735   -3.4221   -3.7298 O.3       1 <0>        -0.5580
     23 H3         -0.5289    1.8773    0.9072 H         1 <0>         0.0591
     24 H4         -0.5459    1.8868   -0.8726 H         1 <0>         0.0507
     25 H5          1.9269    1.7038   -0.8972 H         1 <0>         0.0544
     26 H6          1.4019    3.1452    0.0056 H         1 <0>         0.0547
     27 H7          3.1793    1.9258    1.2314 H         1 <0>         0.0564
     28 H8          1.6465    1.9000    2.1359 H         1 <0>         0.0790
     29 H9          0.7568   -1.6008    1.2356 H         1 <0>         0.0771
     30 H10         0.2319   -0.1594    2.1383 H         1 <0>         0.0649
     31 H11        -1.0205   -0.3814    0.0098 H         1 <0>         0.0495
     32 H12         0.5123   -0.3556   -0.8948 H         1 <0>         0.0554
     33 H13         3.2171    0.1849   -0.6131 H         1 <0>         0.3763
     34 H14         3.9870   -1.5718   -1.9437 H         1 <0>         0.3840
     35 H15         4.9203   -3.9795    0.2538 H         1 <0>         0.0854
     36 H16         5.1400   -5.2285   -0.9953 H         1 <0>         0.0637
     37 H17         6.1511   -2.3530   -1.1562 H         1 <0>         0.0673
     38 H18         7.1493   -3.7867   -0.8153 H         1 <0>         0.0613
     39 H19         7.2947   -3.1494   -3.2072 H         1 <0>         0.0619
     40 H20         6.5266   -4.7437   -3.0164 H         1 <0>         0.0610
     41 H21         5.0583   -2.0936   -3.3880 H         1 <0>         0.0694
     42 H22         5.2780   -3.3426   -4.6371 H         1 <0>         0.0625
     43 H23         2.7999   -3.5495   -4.6880 H         1 <0>         0.3714
@<TRIPOS>BOND
     1    1    6 1
     2    1    2 1
     3    1   23 1
     4    1   24 1
     5    2    3 1
     6    2   25 1
     7    2   26 1
     8    3    4 1
     9    3   27 1
    10    3   28 1
    11    4    5 1
    12    4    7 1
    13    4   10 1
    14    5    6 1
    15    5   29 1
    16    5   30 1
    17    6   31 1
    18    6   32 1
    19    7    8 2
    20    7    9 1
    21   10   11 am
    22   10   33 1
    23   11   12 2
    24   11   13 am
    25   13   14 1
    26   13   34 1
    27   14   15 1
    28   14   20 1
    29   14   16 1
    30   16   17 1
    31   16   35 1
    32   16   36 1
    33   17   18 1
    34   17   37 1
    35   17   38 1
    36   18   19 1
    37   18   39 1
    38   18   40 1
    39   19   20 1
    40   19   41 1
    41   19   42 1
    42   20   21 1
    43   20   22 1
    44   22   43 1
@<TRIPOS>MOLECULE
ZINC61593024
   27    28     0     0     0
SMALL
USER_CHARGES

@<TRIPOS>ATOM
      1 C1         -1.4605    2.3063    1.4263 C.3       1 <0>         0.0988
      2 N1         -2.2081    1.2947    2.1773 N.am      1 <0>        -0.5377
      3 C2         -3.5396    1.2917    2.3870 C.2       1 <0>         0.6514
      4 O1         -4.3331    2.1255    1.9877 O.2       1 <0>        -0.5768
      5 N2         -3.8342    0.1974    3.1190 N.am      1 <0>        -0.5510
      6 H1         -4.7156   -0.0694    3.4236 H         1 <0>         0.4482
      7 N3         -2.6324   -0.4832    3.3582 N.2       1 <0>        -0.2901
      8 C3         -1.6716    0.1815    2.7843 C.2       1 <0>         0.2733
      9 S1          0.0325   -0.2663    2.7877 S.3       1 <0>         0.1663
     10 C4          0.1009   -1.6751    3.8438 C.ar      1 <0>        -0.1843
     11 C5          0.2146   -2.9494    3.3003 C.ar      1 <0>        -0.0227
     12 C6          0.2687   -4.0520    4.1257 C.ar      1 <0>        -0.2124
     13 C7          0.2101   -3.9006    5.5088 C.ar      1 <0>         0.2278
     14 C8          0.0970   -2.6408    6.0672 C.ar      1 <0>        -0.1703
     15 C9          0.0466   -1.5140    5.2387 C.ar      1 <0>        -0.0271
     16 C10        -0.0675   -0.1703    5.8240 C.2       1 <0>         0.5120
     17 O2         -0.1146   -0.0343    7.0392 O.co2     1 <0>        -0.6828
     18 O3         -0.1155    0.8121    5.0960 O.co2     1 <0>        -0.6554
     19 N4          0.2654   -5.0281    6.3368 N.pl3     1 <0>        -0.8804
     20 H2         -1.4145    2.0188    0.3759 H         1 <0>         0.0700
     21 H3         -1.9611    3.2702    1.5176 H         1 <0>         0.0863
     22 H4         -0.4496    2.3826    1.8267 H         1 <0>         0.0930
     23 H5          0.2604   -3.0759    2.2287 H         1 <0>         0.1259
     24 H6          0.3567   -5.0395    3.6971 H         1 <0>         0.1183
     25 H7          0.0517   -2.5263    7.1401 H         1 <0>         0.1289
     26 H8          0.3445   -5.9127    5.9469 H         1 <0>         0.3935
     27 H9          0.2248   -4.9246    7.3004 H         1 <0>         0.3974
@<TRIPOS>BOND
     1    1    2 1
     2    1   20 1
     3    1   21 1
     4    1   22 1
     5    2    8 1
     6    2    3 am
     7    3    4 2
     8    3    5 am
     9    5    6 1
    10    5    7 1
    11    7    8 2
    12    8    9 1
    13    9   10 1
    14   10   15 ar
    15   10   11 ar
    16   11   12 ar
    17   11   23 1
    18   12   13 ar
    19   12   24 1
    20   13   14 ar
    21   13   19 1
    22   14   15 ar
    23   14   25 1
    24   15   16 1
    25   16   17 2
    26   16   18 1
    27   19   26 1
    28   19   27 1
@<TRIPOS>MOLECULE
ZINC04973620
   56    60     0     0     0
SMALL
USER_CHARGES
(4-ethoxyphenyl)-(3-pyridyl)BLAHone
@<TRIPOS>ATOM
      1 C1          4.2069  -11.5474    4.8068 C.3       1 <0>        -0.1537
      2 C2          3.5965  -10.1719    4.5307 C.3       1 <0>         0.0542
      3 O1          2.7579  -10.2460    3.3759 O.3       1 <0>        -0.3163
      4 C3          2.1347   -9.1011    2.9915 C.ar      1 <0>         0.1319
      5 C4          1.3058   -9.1011    1.8790 C.ar      1 <0>        -0.1498
      6 C5          0.6738   -7.9359    1.4901 C.ar      1 <0>        -0.0699
      7 C6          0.8663   -6.7705    2.2088 C.ar      1 <0>        -0.1200
      8 C7          1.6964   -6.7667    3.3146 C.ar      1 <0>        -0.0722
      9 C8          2.3266   -7.9304    3.7107 C.ar      1 <0>        -0.2060
     10 C9          0.1752   -5.5010    1.7826 C.3       1 <0>        -0.0328
     11 H1         -0.4423   -5.6924    0.9050 H         1 <0>         0.0915
     12 C10         1.2147   -4.4286    1.4605 C.3       1 <0>        -0.1014
     13 C11         0.5181   -3.1447    1.0401 C.2       1 <0>         0.2619
     14 C12        -0.6657   -2.8071    1.5777 C.2       1 <0>        -0.2977
     15 C13        -1.4494   -1.5513    1.2783 C.3       1 <0>         0.2820
     16 H2         -2.4876   -1.8275    1.0939 H         1 <0>         0.0986
     17 N1         -0.9668   -0.8015    0.1371 N.pl3     1 <0>        -0.7679
     18 C14         0.2965   -0.2119    0.1437 C.ar      1 <0>         0.1687
     19 C15         0.4514    1.1649    0.1508 C.ar      1 <0>        -0.1247
     20 C16         1.7214    1.7055    0.2548 C.ar      1 <0>        -0.1061
     21 C17         2.8273    0.8807    0.3511 C.ar      1 <0>        -0.1206
     22 C18         2.6768   -0.4955    0.3285 C.ar      1 <0>        -0.1143
     23 C19         1.4089   -1.0376    0.2084 C.ar      1 <0>         0.1133
     24 N2          1.1918   -2.4078    0.1209 N.pl3     1 <0>        -0.6849
     25 C20        -1.4024   -0.6580    2.4911 C.ar      1 <0>        -0.1373
     26 C21        -0.1965   -0.1317    2.9291 C.ar      1 <0>        -0.0620
     27 C22        -0.2011    0.6850    4.0492 C.ar      1 <0>        -0.1780
     28 C23        -1.3990    0.9458    4.6877 C.ar      1 <0>         0.0954
     29 N3         -2.5271    0.4279    4.2429 N.ar      1 <0>        -0.4859
     30 C24        -2.5611   -0.3485    3.1773 C.ar      1 <0>         0.1263
     31 C25        -1.2933   -3.6632    2.5132 C.2       1 <0>         0.3984
     32 O2         -2.3541   -3.3222    2.9989 O.2       1 <0>        -0.4697
     33 C26        -0.6981   -4.9751    2.9278 C.3       1 <0>        -0.1500
     34 H3          3.4099  -12.2700    4.9822 H         1 <0>         0.0672
     35 H4          4.7992  -11.8613    3.9472 H         1 <0>         0.0669
     36 H5          4.8465  -11.4909    5.6876 H         1 <0>         0.0796
     37 H6          4.3934   -9.4493    4.3552 H         1 <0>         0.0622
     38 H7          3.0042   -9.8581    5.3902 H         1 <0>         0.0626
     39 H8          1.1546  -10.0113    1.3178 H         1 <0>         0.1318
     40 H9          0.0284   -7.9354    0.6241 H         1 <0>         0.1307
     41 H10         1.8489   -5.8540    3.8715 H         1 <0>         0.1237
     42 H11         2.9711   -7.9280    4.5774 H         1 <0>         0.1280
     43 H12         1.8542   -4.7761    0.6491 H         1 <0>         0.0881
     44 H13         1.8238   -4.2376    2.3440 H         1 <0>         0.0963
     45 H14        -1.5323   -0.7079   -0.6454 H         1 <0>         0.4003
     46 H15        -0.4107    1.8105    0.0715 H         1 <0>         0.1254
     47 H16         1.8495    2.7779    0.2605 H         1 <0>         0.1256
     48 H17         3.8130    1.3120    0.4444 H         1 <0>         0.1274
     49 H18         3.5403   -1.1397    0.4035 H         1 <0>         0.1276
     50 H19         1.5480   -2.8711   -0.6533 H         1 <0>         0.4069
     51 H20         0.7243   -0.3526    2.4097 H         1 <0>         0.1263
     52 H21         0.7196    1.1125    4.4181 H         1 <0>         0.1299
     53 H22        -1.4112    1.5814    5.5608 H         1 <0>         0.1524
     54 H23        -3.5049   -0.7505    2.8397 H         1 <0>         0.1524
     55 H24        -1.4257   -5.6333    3.1215 H         1 <0>         0.0887
     56 H25        -0.0871   -4.8368    3.8198 H         1 <0>         0.0986
@<TRIPOS>BOND
     1    1    2 1
     2    1   34 1
     3    1   35 1
     4    1   36 1
     5    2    3 1
     6    2   37 1
     7    2   38 1
     8    3    4 1
     9    4    9 ar
    10    4    5 ar
    11    5    6 ar
    12    5   39 1
    13    6    7 ar
    14    6   40 1
    15    7    8 ar
    16    7   10 1
    17    8    9 ar
    18    8   41 1
    19    9   42 1
    20   10   11 1
    21   10   33 1
    22   10   12 1
    23   12   13 1
    24   12   43 1
    25   12   44 1
    26   13   24 1
    27   13   14 2
    28   14   15 1
    29   14   31 1
    30   15   16 1
    31   15   17 1
    32   15   25 1
    33   17   18 1
    34   17   45 1
    35   18   23 ar
    36   18   19 ar
    37   19   20 ar
    38   19   46 1
    39   20   21 ar
    40   20   47 1
    41   21   22 ar
    42   21   48 1
    43   22   23 ar
    44   22   49 1
    45   23   24 1
    46   24   50 1
    47   25   30 ar
    48   25   26 ar
    49   26   27 ar
    50   26   51 1
    51   27   28 ar
    52   27   52 1
    53   28   29 ar
    54   28   53 1
    55   29   30 ar
    56   30   54 1
    57   31   32 2
    58   31   33 1
    59   33   55 1
    60   33   56 1
@<TRIPOS>MOLECULE
ZINC15730465
   48    50     0     0     0
SMALL
USER_CHARGES
(2S)-N-(2-ethyl-6-methyl-phenyl)-2-methyl-4-oxo-3,5-dihydro-2H-1,5-benzothiazepine-7-sulfonamide
@<TRIPOS>ATOM
      1 C1         -0.0497    2.7027   -3.1165 C.3       1 <0>        -0.1499
      2 C2         -0.4038    1.3286   -2.5442 C.3       1 <0>        -0.0883
      3 C3          0.4069    1.0792   -1.2986 C.ar      1 <0>        -0.0526
      4 C4          1.7682    0.8642   -1.3911 C.ar      1 <0>        -0.1183
      5 C5          2.5127    0.6357   -0.2487 C.ar      1 <0>        -0.0979
      6 C6          1.8978    0.6215    0.9901 C.ar      1 <0>        -0.1234
      7 C7          0.5373    0.8356    1.0897 C.ar      1 <0>        -0.0699
      8 C8         -0.2139    1.0655   -0.0562 C.ar      1 <0>         0.1118
      9 N1         -1.5912    1.2768    0.0404 N.pl3     1 <0>        -1.0540
     10 S1         -2.6456    0.0789   -0.4017 S.o2      1 <0>         2.6845
     11 O1         -3.9542    0.6004   -0.2149 O.2       1 <0>        -0.9463
     12 O2         -2.1948   -0.4168   -1.6548 O.2       1 <0>        -0.9344
     13 C9         -2.4570   -1.2350    0.7570 C.ar      1 <0>        -0.6391
     14 C10        -3.2659   -1.2852    1.8777 C.ar      1 <0>        -0.0292
     15 C11        -3.1246   -2.3122    2.7939 C.ar      1 <0>        -0.0706
     16 C12        -2.1684   -3.2921    2.5825 C.ar      1 <0>        -0.0765
     17 C13        -1.3545   -3.2432    1.4529 C.ar      1 <0>         0.1533
     18 C14        -1.5043   -2.2141    0.5381 C.ar      1 <0>        -0.0284
     19 N2         -0.3941   -4.2463    1.2505 N.am      1 <0>        -0.6685
     20 C15        -0.7405   -5.5373    1.3241 C.2       1 <0>         0.5323
     21 O3          0.1263   -6.3857    1.3414 O.2       1 <0>        -0.5146
     22 C16        -2.1799   -5.9549    1.3852 C.3       1 <0>        -0.1507
     23 C17        -2.6508   -6.0499    2.8467 C.3       1 <0>        -0.0562
     24 H1         -2.2831   -6.9727    3.2954 H         1 <0>         0.1295
     25 S2         -1.9639   -4.6119    3.7345 S.3       1 <0>        -0.1303
     26 C18        -4.1793   -6.0152    2.9041 C.3       1 <0>        -0.1446
     27 C19        -0.1318    0.8204    2.4399 C.3       1 <0>        -0.1203
     28 H2         -0.2728    3.4724   -2.3776 H         1 <0>         0.0541
     29 H3          1.0118    2.7315   -3.3620 H         1 <0>         0.0568
     30 H4         -0.6361    2.8832   -4.0174 H         1 <0>         0.0605
     31 H5         -0.1808    0.5589   -3.2831 H         1 <0>         0.0836
     32 H6         -1.4654    1.2999   -2.2987 H         1 <0>         0.0744
     33 H7          2.2515    0.8750   -2.3568 H         1 <0>         0.1294
     34 H8          3.5769    0.4676   -0.3238 H         1 <0>         0.1277
     35 H9          2.4823    0.4431    1.8805 H         1 <0>         0.1274
     36 H10        -1.9300    2.1252    0.3665 H         1 <0>         0.4263
     37 H11        -4.0104   -0.5196    2.0384 H         1 <0>         0.1526
     38 H12        -3.7566   -2.3499    3.6690 H         1 <0>         0.1522
     39 H13        -0.8774   -2.1740   -0.3404 H         1 <0>         0.1511
     40 H14         0.5247   -4.0031    1.0567 H         1 <0>         0.4172
     41 H15        -2.2936   -6.9273    0.9060 H         1 <0>         0.1200
     42 H16        -2.7879   -5.2200    0.8577 H         1 <0>         0.0914
     43 H17        -4.5397   -5.0985    2.4372 H         1 <0>         0.0622
     44 H18        -4.5826   -6.8768    2.3720 H         1 <0>         0.0743
     45 H19        -4.5047   -6.0455    3.9440 H         1 <0>         0.0780
     46 H20        -0.3906   -0.2045    2.7056 H         1 <0>         0.0717
     47 H21         0.5485    1.2288    3.1872 H         1 <0>         0.0728
     48 H22        -1.0374    1.4260    2.4035 H         1 <0>         0.0685
@<TRIPOS>BOND
     1    1    2 1
     2    1   28 1
     3    1   29 1
     4    1   30 1
     5    2    3 1
     6    2   31 1
     7    2   32 1
     8    3    8 ar
     9    3    4 ar
    10    4    5 ar
    11    4   33 1
    12    5    6 ar
    13    5   34 1
    14    6    7 ar
    15    6   35 1
    16    7    8 ar
    17    7   27 1
    18    8    9 1
    19    9   10 1
    20    9   36 1
    21   10   11 2
    22   10   12 2
    23   10   13 1
    24   13   18 ar
    25   13   14 ar
    26   14   15 ar
    27   14   37 1
    28   15   16 ar
    29   15   38 1
    30   16   25 1
    31   16   17 ar
    32   17   18 ar
    33   17   19 1
    34   18   39 1
    35   19   20 am
    36   19   40 1
    37   20   21 2
    38   20   22 1
    39   22   23 1
    40   22   41 1
    41   22   42 1
    42   23   24 1
    43   23   25 1
    44   23   26 1
    45   26   43 1
    46   26   44 1
    47   26   45 1
    48   27   46 1
    49   27   47 1
    50   27   48 1
@<TRIPOS>MOLECULE
ZINC34971001
   54    56     0     0     0
SMALL
USER_CHARGES

@<TRIPOS>ATOM
      1 C1         -0.7272    1.4621    0.1875 C.3       1 <0>        -0.1597
      2 C2         -0.0324    0.1536   -0.1945 C.3       1 <0>         0.1493
      3 H1          0.4679    0.2749   -1.1553 H         1 <0>         0.1106
      4 C3          0.9841   -0.2018    0.8597 C.2       1 <0>         0.5307
      5 O1          0.6819   -0.9489    1.7661 O.2       1 <0>        -0.5351
      6 N1          2.2295    0.3107    0.7954 N.am      1 <0>        -0.6032
      7 C4          2.6983    1.3145   -0.1725 C.3       1 <0>         0.1014
      8 C5          4.1992    1.5381    0.1238 C.3       1 <0>        -0.0671
      9 C6          4.2868    1.2098    1.6383 C.3       1 <0>        -0.1237
     10 C7          3.3544   -0.0260    1.6904 C.3       1 <0>         0.1397
     11 H2          3.0072   -0.2283    2.7119 H         1 <0>         0.0983
     12 C8          4.1288   -1.2025    1.1022 C.3       1 <0>        -0.1171
     13 C9          4.6630   -0.9505   -0.2959 C.3       1 <0>        -0.0522
     14 C10         5.0162    0.4871   -0.6238 C.3       1 <0>        -0.0979
     15 C11         5.9582   -1.7870   -0.4474 C.3       1 <0>        -0.1473
     16 C12         3.6717   -1.4969   -1.3344 C.3       1 <0>        -0.1430
     17 C13         4.6476    2.9737   -0.1911 C.3       1 <0>        -0.1317
     18 N2         -1.0276   -0.9169   -0.2939 N.am      1 <0>        -0.7252
     19 C14        -1.7123   -1.0961   -1.4408 C.2       1 <0>         0.7094
     20 O2         -1.5041   -0.3694   -2.3931 O.2       1 <0>        -0.5682
     21 N3         -2.6279   -2.0809   -1.5322 N.am      1 <0>        -0.6839
     22 C15        -3.4164   -2.1987   -2.6823 C.ar      1 <0>         0.1684
     23 C16        -4.7414   -2.6025   -2.5793 C.ar      1 <0>        -0.1307
     24 C17        -5.5175   -2.7175   -3.7158 C.ar      1 <0>        -0.0937
     25 C18        -4.9770   -2.4312   -4.9560 C.ar      1 <0>        -0.1069
     26 C19        -3.6575   -2.0291   -5.0625 C.ar      1 <0>        -0.0729
     27 C20        -2.8775   -1.9067   -3.9280 C.ar      1 <0>        -0.0917
     28 Br1        -2.9227   -1.6398   -6.7608 Br        1 <0>        -0.0450
     29 H3          0.0215    2.2382    0.3460 H         1 <0>         0.0721
     30 H4         -1.3995    1.7644   -0.6155 H         1 <0>         0.0783
     31 H5         -1.2986    1.3159    1.1041 H         1 <0>         0.0670
     32 H6          2.5516    0.9712   -1.1912 H         1 <0>         0.0778
     33 H7          2.1519    2.2496   -0.0202 H         1 <0>         0.0699
     34 H8          5.3047    0.9541    1.9319 H         1 <0>         0.0890
     35 H9          3.8975    2.0277    2.2450 H         1 <0>         0.0771
     36 H10         4.9727   -1.4423    1.7673 H         1 <0>         0.0726
     37 H11         3.4807   -2.0901    1.0847 H         1 <0>         0.0651
     38 H12         4.8948    0.6464   -1.7073 H         1 <0>         0.0654
     39 H13         6.0849    0.6488   -0.4076 H         1 <0>         0.0662
     40 H14         5.7268   -2.8432   -0.3093 H         1 <0>         0.0541
     41 H15         6.3755   -1.6335   -1.4425 H         1 <0>         0.0552
     42 H16         6.6835   -1.4728    0.3032 H         1 <0>         0.0549
     43 H17         2.7109   -0.9953   -1.2187 H         1 <0>         0.0526
     44 H18         4.0584   -1.3143   -2.3370 H         1 <0>         0.0548
     45 H19         3.5424   -2.5688   -1.1845 H         1 <0>         0.0521
     46 H20         4.0667    3.6754    0.4074 H         1 <0>         0.0623
     47 H21         5.7060    3.0839    0.0453 H         1 <0>         0.0646
     48 H22         4.4883    3.1802   -1.2495 H         1 <0>         0.0620
     49 H23        -1.1938   -1.4967    0.4658 H         1 <0>         0.4084
     50 H24        -2.7403   -2.7080   -0.8008 H         1 <0>         0.4112
     51 H25        -5.1643   -2.8267   -1.6111 H         1 <0>         0.1327
     52 H26        -6.5476   -3.0318   -3.6358 H         1 <0>         0.1373
     53 H27        -5.5861   -2.5219   -5.8433 H         1 <0>         0.1345
     54 H28        -1.8488   -1.5885   -4.0108 H         1 <0>         0.1512
@<TRIPOS>BOND
     1    1    2 1
     2    1   29 1
     3    1   30 1
     4    1   31 1
     5    2    3 1
     6    2    4 1
     7    2   18 1
     8    4    5 2
     9    4    6 am
    10    6   10 1
    11    6    7 1
    12    7    8 1
    13    7   32 1
    14    7   33 1
    15    8   14 1
    16    8    9 1
    17    8   17 1
    18    9   10 1
    19    9   34 1
    20    9   35 1
    21   10   11 1
    22   10   12 1
    23   12   13 1
    24   12   36 1
    25   12   37 1
    26   13   14 1
    27   13   15 1
    28   13   16 1
    29   14   38 1
    30   14   39 1
    31   15   40 1
    32   15   41 1
    33   15   42 1
    34   16   43 1
    35   16   44 1
    36   16   45 1
    37   17   46 1
    38   17   47 1
    39   17   48 1
    40   18   19 am
    41   18   49 1
    42   19   20 2
    43   19   21 am
    44   21   22 1
    45   21   50 1
    46   22   27 ar
    47   22   23 ar
    48   23   24 ar
    49   23   51 1
    50   24   25 ar
    51   24   52 1
    52   25   26 ar
    53   25   53 1
    54   26   27 ar
    55   26   28 1
    56   27   54 1
@<TRIPOS>MOLECULE
ZINC42015265
   32    34     0     0     0
SMALL
USER_CHARGES

@<TRIPOS>ATOM
      1 C1         -1.0867    1.4022    0.1306 C.3       1 <0>        -0.1219
      2 C2         -0.8299   -0.0824    0.0946 C.ar      1 <0>        -0.0535
      3 C3         -1.6098   -0.9361    0.8534 C.ar      1 <0>        -0.0921
      4 C4         -1.3774   -2.2971    0.8229 C.ar      1 <0>        -0.0843
      5 C5         -0.3593   -2.8087    0.0294 C.ar      1 <0>         0.1335
      6 C6          0.4225   -1.9490   -0.7317 C.ar      1 <0>        -0.0684
      7 C7          0.1811   -0.5884   -0.7011 C.ar      1 <0>        -0.0823
      8 Br1         1.8109   -2.6401   -1.8138 Br        1 <0>        -0.0147
      9 N1         -0.1208   -4.1894   -0.0032 N.pl3     1 <0>        -0.3346
     10 C8          0.1634   -5.0074    1.0509 C.2       1 <0>         0.2999
     11 N2          0.3122   -6.2218    0.5636 N.2       1 <0>        -0.3103
     12 N3          0.1425   -6.2202   -0.7090 N.2       1 <0>        -0.0320
     13 N4         -0.1286   -5.0322   -1.1286 N.2       1 <0>        -0.0491
     14 C9          0.2818   -4.6068    2.4703 C.ar      1 <0>         0.0218
     15 C10         0.4972   -3.2690    2.8042 C.ar      1 <0>        -0.1500
     16 C11         0.6069   -2.8971    4.1285 C.ar      1 <0>        -0.0357
     17 C12         0.5045   -3.8467    5.1288 C.ar      1 <0>        -0.1521
     18 C13         0.2903   -5.1823    4.8058 C.ar      1 <0>         0.2492
     19 C14         0.1727   -5.5637    3.4781 C.ar      1 <0>        -0.1344
     20 N5          0.1879   -6.1388    5.8195 N.pl3     1 <0>        -0.8631
     21 Br2         0.6568   -3.3277    6.9408 Br        1 <0>        -0.0388
     22 H1         -1.8105    1.6645   -0.6410 H         1 <0>         0.0823
     23 H2         -1.4812    1.6791    1.1082 H         1 <0>         0.0774
     24 H3         -0.1539    1.9367   -0.0495 H         1 <0>         0.0759
     25 H4         -2.4014   -0.5378    1.4708 H         1 <0>         0.1476
     26 H5         -1.9868   -2.9628    1.4161 H         1 <0>         0.1435
     27 H6          0.7853    0.0803   -1.2961 H         1 <0>         0.1487
     28 H7          0.5785   -2.5246    2.0259 H         1 <0>         0.1335
     29 H8          0.7737   -1.8612    4.3847 H         1 <0>         0.1427
     30 H9          0.0015   -6.5997    3.2252 H         1 <0>         0.1484
     31 H10         0.2662   -5.8712    6.7486 H         1 <0>         0.4058
     32 H11         0.0385   -7.0703    5.5941 H         1 <0>         0.4071
@<TRIPOS>BOND
     1    1    2 1
     2    1   22 1
     3    1   23 1
     4    1   24 1
     5    2    7 ar
     6    2    3 ar
     7    3    4 ar
     8    3   25 1
     9    4    5 ar
    10    4   26 1
    11    5    6 ar
    12    5    9 1
    13    6    7 ar
    14    6    8 1
    15    7   27 1
    16    9   13 1
    17    9   10 1
    18   10   11 2
    19   10   14 1
    20   11   12 1
    21   12   13 2
    22   14   19 ar
    23   14   15 ar
    24   15   16 ar
    25   15   28 1
    26   16   17 ar
    27   16   29 1
    28   17   18 ar
    29   17   21 1
    30   18   19 ar
    31   18   20 1
    32   19   30 1
    33   20   31 1
    34   20   32 1
@<TRIPOS>MOLECULE
ZINC04406886
   40    43     0     0     0
SMALL
USER_CHARGES

@<TRIPOS>ATOM
      1 C1         -0.0184    1.5028    0.0103 C.3       1 <0>        -0.1065
      2 C2          0.0021   -0.0041    0.0020 C.2       1 <0>        -0.0625
      3 C3          0.0059   -0.6770   -1.1598 C.2       1 <0>        -0.1600
      4 S1          0.0321   -2.3845   -0.6478 S.3       1 <0>         0.1530
      5 C4          0.0372   -2.1444    1.1102 C.2       1 <0>         0.0999
      6 C5          0.0240   -0.7448    1.2495 C.2       1 <0>        -0.2368
      7 C6          0.0292   -0.2565    2.5968 C.2       1 <0>         0.5594
      8 O1          0.0141    0.9415    2.8212 O.2       1 <0>        -0.5131
      9 N1          0.0506   -1.1417    3.6105 N.am      1 <0>        -0.6262
     10 H1          0.0542   -0.8173    4.5246 H         1 <0>         0.4236
     11 C7          0.0667   -2.4797    3.3796 C.2       1 <0>         0.4204
     12 N2          0.0532   -2.9560    2.1634 N.2       1 <0>        -0.4711
     13 C8          0.0899   -3.4321    4.5472 C.3       1 <0>        -0.0318
     14 C9          1.5352   -3.8323    4.8503 C.3       1 <0>        -0.1495
     15 S2         -0.8746   -4.9131    4.1388 S.3       1 <0>         0.0783
     16 C10        -0.8758   -5.8466    5.6332 C.2       1 <0>         0.2578
     17 N3         -0.2934   -5.4822    6.7492 N.2       1 <0>        -0.4901
     18 C11        -0.4913   -6.4334    7.6991 C.ar      1 <0>         0.0689
     19 C12        -0.0987   -6.5517    9.0348 C.ar      1 <0>        -0.0564
     20 C13        -0.4630   -7.6660    9.7589 C.ar      1 <0>        -0.0382
     21 C14        -1.2173   -8.6718    9.1708 C.ar      1 <0>        -0.0913
     22 C15        -1.6124   -8.5690    7.8528 C.ar      1 <0>        -0.0933
     23 C16        -1.2545   -7.4546    7.1096 C.ar      1 <0>         0.0591
     24 N4         -1.4888   -7.0557    5.8032 N.pl3     1 <0>        -0.5773
     25 Cl1         0.0253   -7.8131   11.4183 Cl        1 <0>        -0.0590
     26 C17        -0.0090   -0.1219   -2.5608 C.3       1 <0>        -0.0693
     27 H2          1.0042    1.8801    0.0026 H         1 <0>         0.0732
     28 H3         -0.5455    1.8639   -0.8728 H         1 <0>         0.0690
     29 H4         -0.5286    1.8543    0.9071 H         1 <0>         0.0826
     30 H5         -0.3433   -2.9459    5.4213 H         1 <0>         0.1343
     31 H6          1.5520   -4.5212    5.6948 H         1 <0>         0.0974
     32 H7          1.9685   -4.3185    3.9762 H         1 <0>         0.0803
     33 H8          2.1148   -2.9424    5.0957 H         1 <0>         0.0745
     34 H9          0.4886   -5.7726    9.4980 H         1 <0>         0.1424
     35 H10        -1.4965   -9.5406    9.7484 H         1 <0>         0.1443
     36 H11        -2.1989   -9.3552    7.4009 H         1 <0>         0.1365
     37 H12         1.0149    0.0265   -2.9037 H         1 <0>         0.0830
     38 H13        -0.5163   -0.8228   -3.2239 H         1 <0>         0.0773
     39 H14        -0.5366    0.8319   -2.5681 H         1 <0>         0.0862
     40 H15        -1.9924   -7.5447    5.1338 H         1 <0>         0.4308
@<TRIPOS>BOND
     1    1    2 1
     2    1   27 1
     3    1   28 1
     4    1   29 1
     5    2    6 1
     6    2    3 2
     7    3    4 1
     8    3   26 1
     9    4    5 1
    10    5   12 1
    11    5    6 2
    12    6    7 1
    13    7    8 2
    14    7    9 am
    15    9   10 1
    16    9   11 1
    17   11   12 2
    18   11   13 1
    19   13   14 1
    20   13   15 1
    21   13   30 1
    22   14   31 1
    23   14   32 1
    24   14   33 1
    25   15   16 1
    26   16   24 1
    27   16   17 2
    28   17   18 1
    29   18   23 ar
    30   18   19 ar
    31   19   20 ar
    32   19   34 1
    33   20   21 ar
    34   20   25 1
    35   21   22 ar
    36   21   35 1
    37   22   23 ar
    38   22   36 1
    39   23   24 1
    40   24   40 1
    41   26   37 1
    42   26   38 1
    43   26   39 1
@<TRIPOS>MOLECULE
ZINC02654435
   38    39     0     0     0
SMALL
USER_CHARGES
N-[(2,3-dihydroxyphenyl)methyleneamino]-2,5-dimethyl-benzenesulfonamide
@<TRIPOS>ATOM
      1 C1         -2.9811   -3.3202   -3.9870 C.3       1 <0>        -0.1156
      2 C2         -2.9732   -2.0754   -3.1377 C.ar      1 <0>        -0.1183
      3 C3         -3.8071   -1.0185   -3.4525 C.ar      1 <0>        -0.0569
      4 C4         -3.7996    0.1234   -2.6739 C.ar      1 <0>        -0.1453
      5 C5         -2.9582    0.2088   -1.5802 C.ar      1 <0>         0.0262
      6 C6         -2.1252   -0.8481   -1.2649 C.ar      1 <0>        -0.6806
      7 C7         -2.1293   -1.9885   -2.0466 C.ar      1 <0>        -0.0207
      8 S1         -1.0529   -0.7393    0.1290 S.o2      1 <0>         2.7193
      9 O1         -0.3163   -1.9537    0.1705 O.2       1 <0>        -0.9520
     10 O2         -1.8478   -0.2928    1.2190 O.2       1 <0>        -0.9334
     11 N1          0.0385    0.4658   -0.1857 N.pl3     1 <0>        -0.9683
     12 N2         -0.3973    1.7918   -0.3056 N.2       1 <0>        -0.1964
     13 C8          0.4310    2.7151   -0.6865 C.2       1 <0>         0.1140
     14 C9          0.0178    4.1303   -0.6659 C.ar      1 <0>        -0.0743
     15 C10         0.8660    5.1167   -1.1763 C.ar      1 <0>        -0.0825
     16 C11         0.4762    6.4392   -1.1552 C.ar      1 <0>        -0.1157
     17 C12        -0.7539    6.7967   -0.6306 C.ar      1 <0>        -0.1147
     18 C13        -1.6053    5.8287   -0.1210 C.ar      1 <0>         0.0771
     19 C14        -1.2279    4.4915   -0.1404 C.ar      1 <0>         0.1193
     20 O3         -2.0629    3.5391    0.3534 O.3       1 <0>        -0.4673
     21 O4         -2.8126    6.1871    0.3925 O.3       1 <0>        -0.4898
     22 C15        -2.9496    1.4541   -0.7315 C.3       1 <0>        -0.1511
     23 H1         -2.2485   -3.2184   -4.7877 H         1 <0>         0.0725
     24 H2         -2.7277   -4.1825   -3.3702 H         1 <0>         0.0704
     25 H3         -3.9727   -3.4602   -4.4174 H         1 <0>         0.0695
     26 H4         -4.4642   -1.0850   -4.3071 H         1 <0>         0.1299
     27 H5         -4.4507    0.9492   -2.9200 H         1 <0>         0.1317
     28 H6         -1.4752   -2.8126   -1.8029 H         1 <0>         0.1414
     29 H7          0.9795    0.2535   -0.2871 H         1 <0>         0.4028
     30 H8          1.4230    2.4469   -1.0187 H         1 <0>         0.1299
     31 H9          1.8265    4.8432   -1.5874 H         1 <0>         0.1361
     32 H10         1.1335    7.1997   -1.5503 H         1 <0>         0.1356
     33 H11        -1.0516    7.8348   -0.6179 H         1 <0>         0.1356
     34 H12        -1.9399    3.3583    1.2953 H         1 <0>         0.3942
     35 H13        -3.5295    6.1944   -0.2564 H         1 <0>         0.3940
     36 H14        -2.2856    2.1939   -1.1786 H         1 <0>         0.1071
     37 H15        -3.9593    1.8606   -0.6725 H         1 <0>         0.0726
     38 H16        -2.5977    1.2085    0.2705 H         1 <0>         0.1034
@<TRIPOS>BOND
     1    1    2 1
     2    1   23 1
     3    1   24 1
     4    1   25 1
     5    2    7 ar
     6    2    3 ar
     7    3    4 ar
     8    3   26 1
     9    4    5 ar
    10    4   27 1
    11    5    6 ar
    12    5   22 1
    13    6    7 ar
    14    6    8 1
    15    7   28 1
    16    8    9 2
    17    8   10 2
    18    8   11 1
    19   11   12 1
    20   11   29 1
    21   12   13 2
    22   13   14 1
    23   13   30 1
    24   14   19 ar
    25   14   15 ar
    26   15   16 ar
    27   15   31 1
    28   16   17 ar
    29   16   32 1
    30   17   18 ar
    31   17   33 1
    32   18   19 ar
    33   18   21 1
    34   19   20 1
    35   20   34 1
    36   21   35 1
    37   22   36 1
    38   22   37 1
    39   22   38 1
@<TRIPOS>MOLECULE
ZINC06420758
   40    43     0     0     0
SMALL
USER_CHARGES

@<TRIPOS>ATOM
      1 C1         -0.0184    1.5028    0.0103 C.3       1 <0>        -0.1217
      2 C2          0.0021   -0.0041    0.0020 C.ar      1 <0>        -0.0643
      3 C3          0.0057   -0.6863   -1.2015 C.ar      1 <0>        -0.1173
      4 C4          0.0239   -2.0659   -1.2158 C.ar      1 <0>        -0.0912
      5 C5          0.0392   -2.7728   -0.0132 C.ar      1 <0>        -0.0535
      6 C6          0.0359   -2.0790    1.1971 C.ar      1 <0>        -0.0800
      7 C7          0.0229   -0.6992    1.1979 C.ar      1 <0>        -0.1176
      8 C8          0.0583   -4.2524   -0.0214 C.2       1 <0>         0.1845
      9 C9         -0.7023   -5.0702    0.7454 C.2       1 <0>        -0.2549
     10 C10        -0.3724   -6.4017    0.4250 C.2       1 <0>         0.2719
     11 N1          0.5479   -6.3854   -0.4970 N.2       1 <0>        -0.2485
     12 N2          0.8421   -5.0487   -0.8079 N.pl3     1 <0>        -0.4566
     13 H1          1.4888   -4.7441   -1.4635 H         1 <0>         0.4522
     14 O1         -0.9716   -7.4595    1.0362 O.3       1 <0>        -0.2097
     15 C11        -1.6930   -7.2084    2.1465 C.2       1 <0>         0.4468
     16 C12        -2.0777   -5.9784    2.5467 C.2       1 <0>        -0.2703
     17 C13        -1.7411   -4.7237    1.7810 C.3       1 <0>         0.1219
     18 H2         -1.3443   -3.9717    2.4630 H         1 <0>         0.0985
     19 C14        -2.9785   -4.1942    1.1030 C.ar      1 <0>        -0.0256
     20 C15        -3.6816   -4.9755    0.1987 C.ar      1 <0>        -0.1540
     21 C16        -4.8120   -4.4562   -0.4036 C.ar      1 <0>         0.0980
     22 N3         -5.2224   -3.2338   -0.1272 N.ar      1 <0>        -0.4854
     23 C17        -4.5788   -2.4628    0.7273 C.ar      1 <0>         0.1005
     24 C18        -3.4441   -2.9164    1.3729 C.ar      1 <0>        -0.1615
     25 C19        -2.8402   -5.8593    3.7530 C.1       1 <0>         0.2692
     26 N4         -3.4450   -5.7648    4.7099 N.1       1 <0>        -0.4378
     27 N5         -2.0624   -8.2778    2.9238 N.pl3     1 <0>        -0.8289
     28 H3          1.0042    1.8801    0.0026 H         1 <0>         0.0750
     29 H4         -0.5455    1.8639   -0.8728 H         1 <0>         0.0698
     30 H5         -0.5286    1.8543    0.9071 H         1 <0>         0.0707
     31 H6         -0.0062   -0.1379   -2.1318 H         1 <0>         0.1286
     32 H7          0.0260   -2.5973   -2.1560 H         1 <0>         0.1241
     33 H8          0.0477   -2.6206    2.1313 H         1 <0>         0.1303
     34 H9          0.0248   -0.1609    2.1342 H         1 <0>         0.1307
     35 H10        -3.3501   -5.9770   -0.0323 H         1 <0>         0.1261
     36 H11        -5.3653   -5.0583   -1.1091 H         1 <0>         0.1533
     37 H12        -4.9450   -1.4668    0.9282 H         1 <0>         0.1539
     38 H13        -2.9241   -2.2820    2.0754 H         1 <0>         0.1321
     39 H14        -1.8037   -9.1766    2.6667 H         1 <0>         0.4132
     40 H15        -2.5820   -8.1347    3.7302 H         1 <0>         0.4274
@<TRIPOS>BOND
     1    1    2 1
     2    1   28 1
     3    1   29 1
     4    1   30 1
     5    2    7 ar
     6    2    3 ar
     7    3    4 ar
     8    3   31 1
     9    4    5 ar
    10    4   32 1
    11    5    6 ar
    12    5    8 1
    13    6    7 ar
    14    6   33 1
    15    7   34 1
    16    8   12 1
    17    8    9 2
    18    9   17 1
    19    9   10 1
    20   10   11 2
    21   10   14 1
    22   11   12 1
    23   12   13 1
    24   14   15 1
    25   15   16 2
    26   15   27 1
    27   16   17 1
    28   16   25 1
    29   17   18 1
    30   17   19 1
    31   19   24 ar
    32   19   20 ar
    33   20   21 ar
    34   20   35 1
    35   21   22 ar
    36   21   36 1
    37   22   23 ar
    38   23   24 ar
    39   23   37 1
    40   24   38 1
    41   25   26 3
    42   27   39 1
    43   27   40 1
@<TRIPOS>MOLECULE
ZINC40724339
   38    41     0     0     0
SMALL
USER_CHARGES

@<TRIPOS>ATOM
      1 C1          0.3868    0.2495   -4.1536 C.ar      1 <0>        -0.1066
      2 C2          1.4671    1.1035   -3.9854 C.ar      1 <0>        -0.1122
      3 C3          2.5936    0.6484   -3.3246 C.ar      1 <0>        -0.0570
      4 C4          2.6254   -0.6376   -2.8466 C.ar      1 <0>        -0.1967
      5 C5          1.5444   -1.5353   -2.9993 C.ar      1 <0>         0.1094
      6 C6          0.4097   -1.0362   -3.6796 C.ar      1 <0>        -0.0780
      7 N1          1.7275   -2.7666   -2.4747 N.2       1 <0>        -0.5680
      8 C7          2.8357   -3.1143   -1.8612 C.2       1 <0>         0.3781
      9 S1          3.8144   -1.6227   -1.9677 S.3       1 <0>         0.1172
     10 N2          3.1617   -4.3253   -1.2810 N.pl3     1 <0>        -0.5832
     11 C8          4.4024   -4.4942   -0.6735 C.ar      1 <0>         0.3886
     12 C9          4.7451   -5.7145   -0.0893 C.ar      1 <0>         0.0088
     13 C10         6.0029   -5.8302    0.5063 C.ar      1 <0>         0.4478
     14 N3          6.8206   -4.7804    0.4943 N.ar      1 <0>        -0.5690
     15 C11         6.4575   -3.6456   -0.0685 C.ar      1 <0>         0.3523
     16 N4          5.2824   -3.4963   -0.6455 N.ar      1 <0>        -0.5705
     17 N5          6.3943   -7.0228    1.1026 N.pl3     1 <0>        -0.6030
     18 C12         5.6386   -8.2836    1.0739 C.3       1 <0>         0.1097
     19 C13         6.4445   -9.3195    1.8857 C.3       1 <0>        -0.1343
     20 C14         7.3294   -8.4319    2.8004 C.3       1 <0>        -0.1354
     21 C15         7.6392   -7.2351    1.8633 C.3       1 <0>         0.1177
     22 N6          3.8499   -6.7959   -0.0998 N.pl3     1 <0>        -0.8920
     23 H1         -0.4941    0.6075   -4.6658 H         1 <0>         0.1309
     24 H2          1.4290    2.1132   -4.3669 H         1 <0>         0.1352
     25 H3          3.4430    1.3008   -3.1860 H         1 <0>         0.1307
     26 H4         -0.4485   -1.6751   -3.8271 H         1 <0>         0.1282
     27 H5          2.5259   -5.0577   -1.2971 H         1 <0>         0.4310
     28 H6          7.1459   -2.8134   -0.0599 H         1 <0>         0.2044
     29 H7          4.6582   -8.1386    1.5276 H         1 <0>         0.0786
     30 H8          5.5263   -8.6252    0.0449 H         1 <0>         0.0648
     31 H9          5.7794   -9.9446    2.4815 H         1 <0>         0.0864
     32 H10         7.0619   -9.9301    1.2268 H         1 <0>         0.0796
     33 H11         6.7777   -8.1086    3.6831 H         1 <0>         0.0774
     34 H12         8.2447   -8.9521    3.0825 H         1 <0>         0.0877
     35 H13         8.4589   -7.4810    1.1883 H         1 <0>         0.0673
     36 H14         7.8818   -6.3483    2.4488 H         1 <0>         0.0815
     37 H15         2.8970   -6.6375   -0.0113 H         1 <0>         0.3917
     38 H16         4.1842   -7.7014   -0.1956 H         1 <0>         0.4009
@<TRIPOS>BOND
     1    1    6 ar
     2    1    2 ar
     3    1   23 1
     4    2    3 ar
     5    2   24 1
     6    3    4 ar
     7    3   25 1
     8    4    9 1
     9    4    5 ar
    10    5    6 ar
    11    5    7 1
    12    6   26 1
    13    7    8 2
    14    8    9 1
    15    8   10 1
    16   10   11 1
    17   10   27 1
    18   11   16 ar
    19   11   12 ar
    20   12   13 ar
    21   12   22 1
    22   13   14 ar
    23   13   17 1
    24   14   15 ar
    25   15   16 ar
    26   15   28 1
    27   17   21 1
    28   17   18 1
    29   18   19 1
    30   18   29 1
    31   18   30 1
    32   19   20 1
    33   19   31 1
    34   19   32 1
    35   20   21 1
    36   20   33 1
    37   20   34 1
    38   21   35 1
    39   21   36 1
    40   22   37 1
    41   22   38 1
@<TRIPOS>MOLECULE
ZINC12547699
   39    43     0     0     0
SMALL
USER_CHARGES

@<TRIPOS>ATOM
      1 C1         -0.0167    1.3793    0.0096 C.ar      1 <0>        -0.0948
      2 C2          1.1684    2.0932    0.0021 C.ar      1 <0>        -0.1189
      3 C3          2.3774    1.4288   -0.0130 C.ar      1 <0>        -0.0902
      4 C4          2.4033    0.0336   -0.0208 C.ar      1 <0>        -0.0260
      5 C5          1.2044   -0.6806   -0.0131 C.ar      1 <0>        -0.0631
      6 C6          0.0021   -0.0041    0.0020 C.ar      1 <0>        -0.1192
      7 C7          3.6955   -0.6850   -0.0375 C.2       1 <0>         0.1690
      8 N1          3.9328   -1.9891   -0.0523 N.2       1 <0>        -0.4760
      9 C8          5.1581   -2.4586   -0.0660 C.2       1 <0>         0.0177
     10 C9          6.2126   -1.6003   -0.0651 C.2       1 <0>        -0.1823
     11 S1          5.3587   -0.0288   -0.0511 S.3       1 <0>         0.0394
     12 C10         5.3961   -3.9466   -0.0821 C.3       1 <0>         0.4721
     13 H1          6.4632   -4.1541   -0.0024 H         1 <0>         0.1300
     14 N2          4.8607   -4.5293   -1.3254 N.pl3     1 <0>        -0.7604
     15 C11         3.5260   -4.8198   -1.4231 C.2       1 <0>         0.6751
     16 N3          2.9148   -4.7608   -2.6460 N.pl3     1 <0>        -0.8178
     17 N4          2.8163   -5.1563   -0.3599 N.2       1 <0>        -0.5575
     18 C12         3.4230   -5.1498    0.8494 C.2       1 <0>         0.5170
     19 N5          4.6765   -4.5824    1.0285 N.pl3     1 <0>        -0.5452
     20 C13         5.0198   -4.7450    2.3366 C.ar      1 <0>         0.0617
     21 C14         6.1483   -4.3990    3.0698 C.ar      1 <0>        -0.1163
     22 C15         6.1538   -4.7278    4.4162 C.ar      1 <0>        -0.1115
     23 C16         5.0879   -5.3730    5.0186 C.ar      1 <0>        -0.1309
     24 C17         3.9533   -5.7293    4.3122 C.ar      1 <0>        -0.0685
     25 C18         3.9250   -5.4076    2.9501 C.ar      1 <0>         0.0670
     26 N6          2.9876   -5.6144    1.9964 N.2       1 <0>        -0.4922
     27 H2         -0.9605    1.9041    0.0260 H         1 <0>         0.1306
     28 H3          1.1469    3.1730    0.0078 H         1 <0>         0.1328
     29 H4          3.3018    1.9873   -0.0192 H         1 <0>         0.1259
     30 H5          1.2177   -1.7605   -0.0194 H         1 <0>         0.1354
     31 H6         -0.9265   -0.5556    0.0083 H         1 <0>         0.1332
     32 H7          7.2721   -1.8094   -0.0745 H         1 <0>         0.2046
     33 H8          5.4526   -4.7065   -2.0732 H         1 <0>         0.4162
     34 H9          3.4265   -4.5152   -3.4326 H         1 <0>         0.4119
     35 H10         6.9858   -3.8955    2.6099 H         1 <0>         0.1216
     36 H11         7.0166   -4.4729    5.0136 H         1 <0>         0.1228
     37 H12         5.1439   -5.6057    6.0718 H         1 <0>         0.1243
     38 H13         3.1262   -6.2332    4.7901 H         1 <0>         0.1360
     39 H14         1.9698   -4.9646   -2.7262 H         1 <0>         0.4265
@<TRIPOS>BOND
     1    1    6 ar
     2    1    2 ar
     3    1   27 1
     4    2    3 ar
     5    2   28 1
     6    3    4 ar
     7    3   29 1
     8    4    5 ar
     9    4    7 1
    10    5    6 ar
    11    5   30 1
    12    6   31 1
    13    7   11 1
    14    7    8 2
    15    8    9 1
    16    9   10 2
    17    9   12 1
    18   10   11 1
    19   10   32 1
    20   12   13 1
    21   12   19 1
    22   12   14 1
    23   14   15 1
    24   14   33 1
    25   15   16 1
    26   15   17 2
    27   16   34 1
    28   16   39 1
    29   17   18 1
    30   18   26 2
    31   18   19 1
    32   19   20 1
    33   20   25 ar
    34   20   21 ar
    35   21   22 ar
    36   21   35 1
    37   22   23 ar
    38   22   36 1
    39   23   24 ar
    40   23   37 1
    41   24   25 ar
    42   24   38 1
    43   25   26 1
@<TRIPOS>MOLECULE
ZINC61949927
   33    34     0     0     0
SMALL
USER_CHARGES

@<TRIPOS>ATOM
      1 C1          0.0568    1.2899   -0.0341 C.3       1 <0>         0.0591
      2 N1         -0.0016   -0.1721   -0.1079 N.am      1 <0>        -0.5448
      3 C2          0.1253   -0.9368    1.0565 C.ar      1 <0>         0.1485
      4 C3          0.2458   -2.3190    0.9706 C.ar      1 <0>        -0.1302
      5 C4          0.3715   -3.0793    2.1179 C.ar      1 <0>        -0.0943
      6 C5          0.3777   -2.4716    3.3570 C.ar      1 <0>        -0.0907
      7 C6          0.2572   -1.0838    3.4544 C.ar      1 <0>        -0.0025
      8 C7          0.1365   -0.3158    2.2956 C.ar      1 <0>        -0.1109
      9 C8          0.2634   -0.4504    4.7388 C.1       1 <0>         0.2514
     10 N2          0.2682    0.0520    5.7576 N.1       1 <0>        -0.4083
     11 C9         -0.1776   -0.7803   -1.2976 C.2       1 <0>         0.5774
     12 O1         -0.3411   -1.9844   -1.3468 O.2       1 <0>        -0.5097
     13 C10        -0.1720    0.0139   -2.5393 C.ar      1 <0>        -0.2582
     14 C11         0.9013    0.8614   -2.8384 C.ar      1 <0>         0.0365
     15 C12         0.8586    1.5854   -4.0173 C.ar      1 <0>        -0.2172
     16 C13        -0.2325    1.4531   -4.8592 C.ar      1 <0>         0.2170
     17 N3         -1.2338    0.6495   -4.5587 N.ar      1 <0>        -0.5135
     18 C14        -1.2412   -0.0702   -3.4472 C.ar      1 <0>         0.4659
     19 N4         -2.3101   -0.9047   -3.1755 N.pl3     1 <0>        -0.5477
     20 N5         -3.3011   -1.0689   -4.1012 N.3       1 <0>        -0.5948
     21 Br1         2.2793    2.7467   -4.4742 Br        1 <0>        -0.0280
     22 H1          1.0973    1.6136   -0.0580 H         1 <0>         0.0756
     23 H2         -0.4765    1.7181   -0.8828 H         1 <0>         0.0881
     24 H3         -0.4070    1.6257    0.8934 H         1 <0>         0.0869
     25 H4          0.2409   -2.8005    0.0039 H         1 <0>         0.1803
     26 H5          0.4648   -4.1528    2.0446 H         1 <0>         0.1391
     27 H6          0.4754   -3.0693    4.2512 H         1 <0>         0.1347
     28 H7          0.0474    0.7583    2.3642 H         1 <0>         0.1382
     29 H8          1.7418    0.9484   -2.1658 H         1 <0>         0.1494
     30 H9         -0.2643    2.0187   -5.7787 H         1 <0>         0.1734
     31 H10        -2.3561   -1.3734   -2.3275 H         1 <0>         0.4179
     32 H11        -2.9240   -1.3834   -4.9826 H         1 <0>         0.3500
     33 H12        -4.0095   -1.7033   -3.7640 H         1 <0>         0.3616
@<TRIPOS>BOND
     1    1    2 1
     2    1   22 1
     3    1   23 1
     4    1   24 1
     5    2    3 1
     6    2   11 am
     7    3    8 ar
     8    3    4 ar
     9    4    5 ar
    10    4   25 1
    11    5    6 ar
    12    5   26 1
    13    6    7 ar
    14    6   27 1
    15    7    8 ar
    16    7    9 1
    17    8   28 1
    18    9   10 3
    19   11   12 2
    20   11   13 1
    21   13   18 ar
    22   13   14 ar
    23   14   15 ar
    24   14   29 1
    25   15   16 ar
    26   15   21 1
    27   16   17 ar
    28   16   30 1
    29   17   18 ar
    30   18   19 1
    31   19   20 1
    32   19   31 1
    33   20   32 1
    34   20   33 1
@<TRIPOS>MOLECULE
ZINC04772743
   51    52     0     0     0
SMALL
USER_CHARGES
5-[(4-chlorophenyl)azo-(3,4-dimethylphenyl)-amino]pentane-1,2,3,4-tetraol
@<TRIPOS>ATOM
      1 C1         -0.0298    7.1993    7.6798 C.3       1 <0>        -0.1177
      2 C2         -0.1563    5.7498    7.2872 C.ar      1 <0>        -0.0931
      3 C3         -1.2510    5.0149    7.7050 C.ar      1 <0>        -0.0986
      4 C4         -1.3730    3.6882    7.3424 C.ar      1 <0>        -0.0986
      5 C5         -0.3883    3.0882    6.5668 C.ar      1 <0>         0.1395
      6 C6          0.7101    3.8293    6.1494 C.ar      1 <0>        -0.1348
      7 C7          0.8226    5.1576    6.5107 C.ar      1 <0>        -0.0708
      8 C8          2.0138    5.9623    6.0584 C.3       1 <0>        -0.1178
      9 N1         -0.5056    1.7447    6.2030 N.pl3     1 <0>        -0.4355
     10 C9         -0.3118    1.3442    4.8071 C.3       1 <0>         0.1226
     11 C10        -1.6250    1.5145    4.0407 C.3       1 <0>         0.0650
     12 H1         -2.4153    0.9597    4.5463 H         1 <0>         0.1182
     13 C11        -1.4574    0.9802    2.6168 C.3       1 <0>         0.0484
     14 H2         -1.2805   -0.0948    2.6506 H         1 <0>         0.1142
     15 C12        -2.7282    1.2630    1.8131 C.3       1 <0>         0.0860
     16 H3         -2.9051    2.3380    1.7793 H         1 <0>         0.1131
     17 C13        -2.5607    0.7287    0.3893 C.3       1 <0>         0.0449
     18 O1         -3.6986    1.0946   -0.3938 O.3       1 <0>        -0.5649
     19 O2         -3.8398    0.6168    2.4367 O.3       1 <0>        -0.5402
     20 O3         -0.3458    1.6264    1.9933 O.3       1 <0>        -0.5487
     21 O4         -1.9718    2.8999    3.9918 O.3       1 <0>        -0.5375
     22 N2         -0.8085    0.7801    7.1728 N.2       1 <0>         0.0442
     23 N3         -0.8986    1.1197    8.4141 N.2       1 <0>        -0.3049
     24 C14        -1.1951    0.1755    9.3635 C.ar      1 <0>         0.0963
     25 C15        -1.4056   -1.1525    8.9891 C.ar      1 <0>        -0.1146
     26 C16        -1.6974   -2.0989    9.9493 C.ar      1 <0>        -0.1037
     27 C17        -1.7939   -1.7313   11.2808 C.ar      1 <0>        -0.0270
     28 C18        -1.5917   -0.4143   11.6576 C.ar      1 <0>        -0.1038
     29 C19        -1.2932    0.5399   10.7072 C.ar      1 <0>        -0.0622
     30 Cl1        -2.1692   -2.9265   12.4826 Cl        1 <0>        -0.0633
     31 H4         -0.5075    7.8233    6.9245 H         1 <0>         0.0704
     32 H5         -0.5151    7.3586    8.6427 H         1 <0>         0.0653
     33 H6          1.0247    7.4643    7.7561 H         1 <0>         0.0698
     34 H7         -2.0137    5.4806    8.3114 H         1 <0>         0.1236
     35 H8         -2.2305    3.1162    7.6649 H         1 <0>         0.1172
     36 H9          1.4750    3.3673    5.5429 H         1 <0>         0.1203
     37 H10         1.7929    6.4305    5.0992 H         1 <0>         0.0716
     38 H11         2.2331    6.7332    6.7971 H         1 <0>         0.0720
     39 H12         2.8769    5.3052    5.9517 H         1 <0>         0.0642
     40 H13        -0.0013    0.3001    4.7685 H         1 <0>         0.0993
     41 H14         0.4574    1.9691    4.3533 H         1 <0>         0.0982
     42 H15        -2.4726   -0.3574    0.4168 H         1 <0>         0.0479
     43 H16        -1.6614    1.1550   -0.0553 H         1 <0>         0.0631
     44 H17        -3.6605    0.7881   -1.3101 H         1 <0>         0.3815
     45 H18        -3.7508   -0.3440    2.5011 H         1 <0>         0.3724
     46 H19        -0.4348    2.5872    1.9289 H         1 <0>         0.3776
     47 H20        -1.3120    3.4554    3.5544 H         1 <0>         0.3671
     48 H21        -1.3358   -1.4393    7.9502 H         1 <0>         0.1393
     49 H22        -1.8555   -3.1277    9.6614 H         1 <0>         0.1377
     50 H23        -1.6675   -0.1336   12.6978 H         1 <0>         0.1430
     51 H24        -1.1354    1.5667   11.0023 H         1 <0>         0.1435
@<TRIPOS>BOND
     1    1    2 1
     2    1   31 1
     3    1   32 1
     4    1   33 1
     5    2    7 ar
     6    2    3 ar
     7    3    4 ar
     8    3   34 1
     9    4    5 ar
    10    4   35 1
    11    5    6 ar
    12    5    9 1
    13    6    7 ar
    14    6   36 1
    15    7    8 1
    16    8   37 1
    17    8   38 1
    18    8   39 1
    19    9   10 1
    20    9   22 1
    21   10   11 1
    22   10   40 1
    23   10   41 1
    24   11   12 1
    25   11   13 1
    26   11   21 1
    27   13   14 1
    28   13   15 1
    29   13   20 1
    30   15   16 1
    31   15   17 1
    32   15   19 1
    33   17   18 1
    34   17   42 1
    35   17   43 1
    36   18   44 1
    37   19   45 1
    38   20   46 1
    39   21   47 1
    40   22   23 2
    41   23   24 1
    42   24   29 ar
    43   24   25 ar
    44   25   26 ar
    45   25   48 1
    46   26   27 ar
    47   26   49 1
    48   27   28 ar
    49   27   30 1
    50   28   29 ar
    51   28   50 1
    52   29   51 1
@<TRIPOS>MOLECULE
ZINC20806693
   46    49     0     0     0
SMALL
USER_CHARGES
1-[(E)-[(4-amino-5-benzylsulfanyl-1,2,4-triazol-3-yl)hydrazono]methyl]naphthalen-2-ol
@<TRIPOS>ATOM
      1 C1          9.9606    3.7351   -0.0740 C.ar      1 <0>        -0.1090
      2 C2          9.2583    3.7374   -1.2646 C.ar      1 <0>        -0.1203
      3 C3          7.8760    3.7310   -1.2517 C.ar      1 <0>        -0.0970
      4 C4          7.1960    3.7228   -0.0482 C.ar      1 <0>        -0.0829
      5 C5          7.8983    3.7263    1.1425 C.ar      1 <0>        -0.0969
      6 C6          9.2806    3.7269    1.1296 C.ar      1 <0>        -0.1203
      7 C7          5.6891    3.7163   -0.0342 C.3       1 <0>        -0.0555
      8 S1          5.0918    2.0035   -0.0361 S.3       1 <0>        -0.0069
      9 C8          3.3372    2.1640   -0.0190 C.2       1 <0>         0.1848
     10 N1          2.6661    3.2910   -0.0070 N.2       1 <0>        -0.3043
     11 N2          1.2998    2.9813   -0.0001 N.2       1 <0>        -0.3096
     12 C9          1.1804    1.6756   -0.0002 C.2       1 <0>         0.4901
     13 N3          2.4370    1.1365   -0.0151 N.pl3     1 <0>        -0.2671
     14 N4          2.7391   -0.1956   -0.0248 N.3       1 <0>        -0.7785
     15 N5         -0.0111    0.9658    0.0074 N.pl3     1 <0>        -0.5664
     16 N6         -1.2338    1.6498    0.0169 N.2       1 <0>        -0.1676
     17 C10        -2.3510    0.9843    0.0185 C.2       1 <0>         0.0963
     18 C11        -3.6337    1.7018    0.0285 C.ar      1 <0>        -0.1159
     19 C12        -4.8988    0.9697    0.0244 C.ar      1 <0>         0.0152
     20 C13        -4.9331   -0.4299    0.0109 C.ar      1 <0>        -0.1256
     21 C14        -6.1342   -1.0744    0.0070 C.ar      1 <0>        -0.0949
     22 C15        -7.3296   -0.3595    0.0164 C.ar      1 <0>        -0.1352
     23 C16        -7.3324    1.0019    0.0399 C.ar      1 <0>        -0.0846
     24 C17        -6.1124    1.6997    0.0389 C.ar      1 <0>        -0.0912
     25 C18        -6.0758    3.1051    0.0464 C.ar      1 <0>        -0.0472
     26 C19        -4.8898    3.7701    0.0453 C.ar      1 <0>        -0.1996
     27 C20        -3.6701    3.0959    0.0363 C.ar      1 <0>         0.2064
     28 O1         -2.5095    3.8012    0.0346 O.3       1 <0>        -0.4649
     29 H1         11.0405    3.7393   -0.0840 H         1 <0>         0.1249
     30 H2          9.7895    3.7438   -2.2049 H         1 <0>         0.1263
     31 H3          7.3273    3.7328   -2.1820 H         1 <0>         0.1268
     32 H4          7.3670    3.7243    2.0828 H         1 <0>         0.1268
     33 H5          9.8293    3.7247    2.0598 H         1 <0>         0.1263
     34 H6          5.3286    4.2293    0.8696 H         1 <0>         0.1080
     35 H7          5.3119    4.2372   -0.9266 H         1 <0>         0.1080
     36 H8          1.9318   -0.9427   -0.0204 H         1 <0>         0.4356
     37 H9          3.7897   -0.5212   -0.0370 H         1 <0>         0.4472
     38 H10         0.0038   -0.1341    0.0060 H         1 <0>         0.4015
     39 H11        -2.3360   -0.1156    0.0124 H         1 <0>         0.1180
     40 H12        -4.0131   -0.9956    0.0032 H         1 <0>         0.1251
     41 H13        -6.1593   -2.1541   -0.0030 H         1 <0>         0.1247
     42 H14        -8.2685   -0.8933    0.0134 H         1 <0>         0.1241
     43 H15        -8.2672    1.5428    0.0466 H         1 <0>         0.1288
     44 H16        -7.0005    3.6630    0.0528 H         1 <0>         0.1323
     45 H17        -4.8931    4.8501    0.0512 H         1 <0>         0.1331
     46 H18        -2.5342    4.9009    0.0407 H         1 <0>         0.4312
@<TRIPOS>BOND
     1    1    6 ar
     2    1    2 ar
     3    1   29 1
     4    2    3 ar
     5    2   30 1
     6    3    4 ar
     7    3   31 1
     8    4    5 ar
     9    4    7 1
    10    5    6 ar
    11    5   32 1
    12    6   33 1
    13    7    8 1
    14    7   34 1
    15    7   35 1
    16    8    9 1
    17    9   13 1
    18    9   10 2
    19   10   11 1
    20   11   12 2
    21   12   13 1
    22   12   15 1
    23   13   14 1
    24   14   36 1
    25   14   37 1
    26   15   16 1
    27   15   38 1
    28   16   17 2
    29   17   18 1
    30   17   39 1
    31   18   27 ar
    32   18   19 ar
    33   19   24 ar
    34   19   20 ar
    35   20   21 ar
    36   20   40 1
    37   21   22 ar
    38   21   41 1
    39   22   23 ar
    40   22   42 1
    41   23   24 ar
    42   23   43 1
    43   24   25 ar
    44   25   26 ar
    45   25   44 1
    46   26   27 ar
    47   26   45 1
    48   27   28 1
    49   28   46 1
@<TRIPOS>MOLECULE
ZINC40755660
   56    61     0     0     0
SMALL
USER_CHARGES

@<TRIPOS>ATOM
      1 C1          1.0811   -0.4575   -0.7390 C.ar      1 <0>        -0.1514
      2 C2          2.2690    0.2483   -0.7369 C.ar      1 <0>        -0.0906
      3 C3          2.3878    1.4103    0.0104 C.ar      1 <0>         0.0263
      4 C4          1.3086    1.8678    0.7581 C.ar      1 <0>         0.0731
      5 C5          0.1175    1.1590    0.7570 C.ar      1 <0>        -0.1115
      6 C6          0.0024   -0.0046    0.0085 C.ar      1 <0>         0.1746
      7 N1         -1.2002   -0.7208    0.0077 N.pl3     1 <0>        -0.6541
      8 C7         -2.4105   -0.0471    0.1259 C.ar      1 <0>         0.3872
      9 C8         -3.6078   -0.7557    0.2431 C.ar      1 <0>         0.0003
     10 C9         -4.7946   -0.0299    0.3589 C.ar      1 <0>         0.4134
     11 N2         -4.7401    1.2999    0.3533 N.ar      1 <0>        -0.5596
     12 C10        -3.5885    1.9302    0.2406 C.ar      1 <0>         0.3201
     13 N3         -2.4454    1.2834    0.1346 N.ar      1 <0>        -0.5606
     14 N4         -6.0141   -0.6858    0.4778 N.pl3     1 <0>        -0.7116
     15 C11        -7.2527    0.0871    0.5987 C.3       1 <0>         0.2000
     16 C12        -7.4265    0.9690   -0.6394 C.3       1 <0>        -0.1200
     17 C13        -8.7201    1.7762   -0.5131 C.3       1 <0>        -0.0821
     18 C14        -9.9088    0.8198   -0.3973 C.3       1 <0>        -0.1116
     19 C15        -9.7350   -0.0621    0.8409 C.3       1 <0>        -0.0790
     20 C16        -8.4414   -0.8693    0.7146 C.3       1 <0>        -0.1163
     21 C17        -9.6662    0.8196    2.0894 C.3       1 <0>        -0.1116
     22 C18        -8.4775    1.7759    1.9735 C.3       1 <0>        -0.0821
     23 C19        -8.6513    2.6578    0.7354 C.3       1 <0>        -0.1069
     24 C20        -7.1839    0.9688    1.8473 C.3       1 <0>        -0.1200
     25 N5         -3.6179   -2.1599    0.2440 N.pl3     1 <0>        -0.8770
     26 O1          1.4040    3.0105    1.4915 O.3       1 <0>        -0.3042
     27 C21         2.7243    3.4916    1.7652 C.3       1 <0>         0.0206
     28 C22         3.5323    3.4462    0.4612 C.3       1 <0>         0.0209
     29 O2          3.5682    2.0902    0.0033 O.3       1 <0>        -0.3090
     30 H1          0.9904   -1.3596   -1.3259 H         1 <0>         0.1314
     31 H2          3.1072   -0.1060   -1.3185 H         1 <0>         0.1369
     32 H3         -0.7211    1.5115    1.3392 H         1 <0>         0.1494
     33 H4         -1.1891   -1.6872   -0.0753 H         1 <0>         0.4139
     34 H5         -3.5809    3.0102    0.2396 H         1 <0>         0.1937
     35 H6         -6.0451   -1.6553    0.4808 H         1 <0>         0.4005
     36 H7         -6.5797    1.6503   -0.7220 H         1 <0>         0.0929
     37 H8         -7.4755    0.3409   -1.5289 H         1 <0>         0.0529
     38 H9         -8.8439    2.4044   -1.3952 H         1 <0>         0.0702
     39 H10       -10.8303    1.3948   -0.3073 H         1 <0>         0.0638
     40 H11        -9.9578    0.1917   -1.2868 H         1 <0>         0.0606
     41 H12       -10.5818   -0.7434    0.9234 H         1 <0>         0.0728
     42 H13        -8.4904   -1.4974   -0.1749 H         1 <0>         0.0655
     43 H14        -8.3176   -1.4975    1.5967 H         1 <0>         0.0655
     44 H15       -10.5878    1.3946    2.1793 H         1 <0>         0.0638
     45 H16        -9.5424    0.1913    2.9715 H         1 <0>         0.0606
     46 H17        -8.4285    2.4040    2.8630 H         1 <0>         0.0702
     47 H18        -7.8045    3.3391    0.6528 H         1 <0>         0.0666
     48 H19        -9.5729    3.2329    0.8253 H         1 <0>         0.0600
     49 H20        -7.0601    0.3405    2.7293 H         1 <0>         0.0530
     50 H21        -6.3371    1.6501    1.7647 H         1 <0>         0.0930
     51 H22        -2.7854   -2.6510    0.1624 H         1 <0>         0.3936
     52 H23        -4.4574   -2.6388    0.3261 H         1 <0>         0.3947
     53 H24         2.6734    4.5173    2.1306 H         1 <0>         0.1221
     54 H25         3.1988    2.8572    2.5139 H         1 <0>         0.0769
     55 H26         3.0541    4.0752   -0.2896 H         1 <0>         0.0772
     56 H27         4.5470    3.7991    0.6450 H         1 <0>         0.1212
@<TRIPOS>BOND
     1    1    6 ar
     2    1    2 ar
     3    1   30 1
     4    2    3 ar
     5    2   31 1
     6    3   29 1
     7    3    4 ar
     8    4    5 ar
     9    4   26 1
    10    5    6 ar
    11    5   32 1
    12    6    7 1
    13    7    8 1
    14    7   33 1
    15    8   13 ar
    16    8    9 ar
    17    9   10 ar
    18    9   25 1
    19   10   11 ar
    20   10   14 1
    21   11   12 ar
    22   12   13 ar
    23   12   34 1
    24   14   15 1
    25   14   35 1
    26   15   20 1
    27   15   24 1
    28   15   16 1
    29   16   17 1
    30   16   36 1
    31   16   37 1
    32   17   23 1
    33   17   18 1
    34   17   38 1
    35   18   19 1
    36   18   39 1
    37   18   40 1
    38   19   20 1
    39   19   21 1
    40   19   41 1
    41   20   42 1
    42   20   43 1
    43   21   22 1
    44   21   44 1
    45   21   45 1
    46   22   23 1
    47   22   24 1
    48   22   46 1
    49   23   47 1
    50   23   48 1
    51   24   49 1
    52   24   50 1
    53   25   51 1
    54   25   52 1
    55   26   27 1
    56   27   28 1
    57   27   53 1
    58   27   54 1
    59   28   29 1
    60   28   55 1
    61   28   56 1
@<TRIPOS>MOLECULE
ZINC56746037
   40    41     0     0     0
SMALL
USER_CHARGES

@<TRIPOS>ATOM
      1 C1         -0.0027    1.5522    0.0212 C.3       1 <0>        -0.1673
      2 C2          0.0080    0.0223    0.0092 C.3       1 <0>         0.1643
      3 H1         -1.0171   -0.3482    0.0174 H         1 <0>         0.0949
      4 C3          0.7192   -0.4729   -1.2516 C.3       1 <0>        -0.0742
      5 C4          0.6227   -1.9750   -1.3257 C.2       1 <0>        -0.1235
      6 C5          1.5926   -2.7698   -0.7441 C.2       1 <0>        -0.1541
      7 C6          1.4758   -4.1175   -0.8289 C.2       1 <0>        -0.1693
      8 S1         -0.0409   -4.2994   -1.7529 S.3       1 <0>         0.0383
      9 C7         -0.4195   -2.5669   -1.9587 C.2       1 <0>        -0.1696
     10 N1          0.7148   -0.4704    1.1941 N.am      1 <0>        -0.7302
     11 C8          0.0560   -0.6128    2.3611 C.2       1 <0>         0.7187
     12 O1         -1.1251   -0.3323    2.4307 O.2       1 <0>        -0.5646
     13 N2          0.7063   -1.0660    3.4512 N.am      1 <0>        -0.5422
     14 N3          2.0671   -1.3891    3.3711 N.am      1 <0>        -0.5306
     15 C9          2.7174   -1.8424    4.4611 C.2       1 <0>         0.7178
     16 O2          3.8985   -2.1228    4.3916 O.2       1 <0>        -0.5501
     17 N4          2.0586   -1.9848    5.6282 N.am      1 <0>        -0.6810
     18 C10         2.7073   -2.5465    6.7341 C.ar      1 <0>         0.1731
     19 C11         2.0022   -3.3507    7.6197 C.ar      1 <0>        -0.1375
     20 C12         2.6448   -3.9040    8.7098 C.ar      1 <0>        -0.0697
     21 C13         3.9899   -3.6576    8.9199 C.ar      1 <0>        -0.1043
     22 C14         4.6948   -2.8562    8.0394 C.ar      1 <0>        -0.0703
     23 C15         4.0585   -2.3051    6.9445 C.ar      1 <0>        -0.1130
     24 Br1         4.8665   -4.4169   10.4136 Br        1 <0>        -0.0475
     25 H2          1.0224    1.9228    0.0130 H         1 <0>         0.0587
     26 H3         -0.5286    1.9188   -0.8604 H         1 <0>         0.0708
     27 H4         -0.5094    1.9051    0.9194 H         1 <0>         0.0649
     28 H5          0.2471   -0.0347   -2.1309 H         1 <0>         0.0942
     29 H6          1.7679   -0.1775   -1.2170 H         1 <0>         0.0790
     30 H7          2.4311   -2.3235   -0.2301 H         1 <0>         0.1269
     31 H8          2.1306   -4.8828   -0.4390 H         1 <0>         0.1847
     32 H9         -1.2603   -2.1092   -2.4588 H         1 <0>         0.1856
     33 H10         1.6570   -0.6941    1.1386 H         1 <0>         0.3907
     34 H11         0.2321   -1.1685    4.2911 H         1 <0>         0.4308
     35 H12         2.5413   -1.2866    2.5311 H         1 <0>         0.4345
     36 H13         1.1348   -1.6981    5.7017 H         1 <0>         0.4069
     37 H14         0.9521   -3.5431    7.4563 H         1 <0>         0.1363
     38 H15         2.0967   -4.5293    9.3990 H         1 <0>         0.1390
     39 H16         5.7447   -2.6652    8.2059 H         1 <0>         0.1382
     40 H17         4.6103   -1.6836    6.2548 H         1 <0>         0.1505
@<TRIPOS>BOND
     1    1    2 1
     2    1   25 1
     3    1   26 1
     4    1   27 1
     5    2    3 1
     6    2    4 1
     7    2   10 1
     8    4    5 1
     9    4   28 1
    10    4   29 1
    11    5    9 2
    12    5    6 1
    13    6    7 2
    14    6   30 1
    15    7    8 1
    16    7   31 1
    17    8    9 1
    18    9   32 1
    19   10   11 am
    20   10   33 1
    21   11   12 2
    22   11   13 am
    23   13   14 1
    24   13   34 1
    25   14   15 am
    26   14   35 1
    27   15   16 2
    28   15   17 am
    29   17   18 1
    30   17   36 1
    31   18   23 ar
    32   18   19 ar
    33   19   20 ar
    34   19   37 1
    35   20   21 ar
    36   20   38 1
    37   21   22 ar
    38   21   24 1
    39   22   23 ar
    40   22   39 1
    41   23   40 1
@<TRIPOS>MOLECULE
ZINC59385161
   44    46     0     0     0
SMALL
USER_CHARGES

@<TRIPOS>ATOM
      1 C1          0.5639    1.3106    0.4696 C.3       1 <0>        -0.1202
      2 C2          0.3136   -0.1473    0.1818 C.2       1 <0>         0.2324
      3 C3         -0.9555   -0.5932    0.0679 C.2       1 <0>        -0.2879
      4 C4         -1.1623   -2.0660   -0.2224 C.3       1 <0>         0.2211
      5 H1         -1.7692   -2.4847    0.5804 H         1 <0>         0.0941
      6 N1          0.0469   -2.8956   -0.3573 N.pl3     1 <0>        -0.6352
      7 C5          1.2496   -2.3041   -0.2166 C.2       1 <0>         0.5552
      8 S1          2.6640   -3.2563   -0.3710 S.2       1 <0>        -0.5897
      9 N2          1.3745   -0.9948    0.0348 N.pl3     1 <0>        -0.5999
     10 C6         -1.9491   -2.1812   -1.5025 C.ar      1 <0>        -0.1586
     11 C7         -2.0702   -1.0892   -2.3403 C.ar      1 <0>        -0.0761
     12 C8         -2.7922   -1.1941   -3.5145 C.ar      1 <0>        -0.1231
     13 C9         -3.3947   -2.3917   -3.8538 C.ar      1 <0>        -0.0861
     14 C10        -3.2763   -3.4864   -3.0199 C.ar      1 <0>        -0.1453
     15 C11        -2.5477   -3.3852   -1.8434 C.ar      1 <0>         0.1223
     16 O1         -2.4250   -4.4624   -1.0239 O.3       1 <0>        -0.4960
     17 C12        -2.0562    0.2855    0.2152 C.2       1 <0>         0.6078
     18 O2         -1.8676    1.4821    0.3404 O.2       1 <0>        -0.4978
     19 N3         -3.3126   -0.2025    0.2168 N.am      1 <0>        -0.5819
     20 N4         -4.3945    0.6490    0.4759 N.2       1 <0>        -0.1898
     21 C13        -5.5938    0.1629    0.5746 C.2       1 <0>         0.0900
     22 C14        -6.7325    1.0591    0.8473 C.ar      1 <0>        -0.0477
     23 C15        -8.0241    0.5387    0.9599 C.ar      1 <0>        -0.0807
     24 C16        -9.0843    1.3827    1.2155 C.ar      1 <0>        -0.1209
     25 C17        -8.8720    2.7427    1.3606 C.ar      1 <0>        -0.0915
     26 C18        -7.5965    3.2662    1.2501 C.ar      1 <0>        -0.1179
     27 C19        -6.5241    2.4329    1.0001 C.ar      1 <0>        -0.0133
     28 Cl1        -4.9228    3.0904    0.8688 Cl        1 <0>        -0.0155
     29 H2          1.6375    1.4914    0.5229 H         1 <0>         0.0726
     30 H3          0.1324    1.9174   -0.3264 H         1 <0>         0.1129
     31 H4          0.1029    1.5776    1.4205 H         1 <0>         0.1081
     32 H5         -0.0207   -3.8453   -0.5428 H         1 <0>         0.4505
     33 H6          2.2685   -0.6285    0.1212 H         1 <0>         0.4437
     34 H7         -1.6006   -0.1529   -2.0775 H         1 <0>         0.1285
     35 H8         -2.8863   -0.3392   -4.1677 H         1 <0>         0.1303
     36 H9         -3.9585   -2.4711   -4.7715 H         1 <0>         0.1326
     37 H10        -3.7470   -4.4215   -3.2853 H         1 <0>         0.1355
     38 H11        -3.1623   -4.5743   -0.4084 H         1 <0>         0.3943
     39 H12        -3.4677   -1.1433    0.0386 H         1 <0>         0.3800
     40 H13        -5.7577   -0.8981    0.4569 H         1 <0>         0.1221
     41 H14        -8.1919   -0.5221    0.8467 H         1 <0>         0.1361
     42 H15       -10.0832    0.9814    1.3024 H         1 <0>         0.1340
     43 H16        -9.7065    3.3984    1.5607 H         1 <0>         0.1345
     44 H17        -7.4383    4.3284    1.3641 H         1 <0>         0.1368
@<TRIPOS>BOND
     1    1    2 1
     2    1   29 1
     3    1   30 1
     4    1   31 1
     5    2    9 1
     6    2    3 2
     7    3    4 1
     8    3   17 1
     9    4    5 1
    10    4    6 1
    11    4   10 1
    12    6    7 1
    13    6   32 1
    14    7    8 2
    15    7    9 1
    16    9   33 1
    17   10   15 ar
    18   10   11 ar
    19   11   12 ar
    20   11   34 1
    21   12   13 ar
    22   12   35 1
    23   13   14 ar
    24   13   36 1
    25   14   15 ar
    26   14   37 1
    27   15   16 1
    28   16   38 1
    29   17   18 2
    30   17   19 am
    31   19   20 1
    32   19   39 1
    33   20   21 2
    34   21   22 1
    35   21   40 1
    36   22   27 ar
    37   22   23 ar
    38   23   24 ar
    39   23   41 1
    40   24   25 ar
    41   24   42 1
    42   25   26 ar
    43   25   43 1
    44   26   27 ar
    45   26   44 1
    46   27   28 1
@<TRIPOS>MOLECULE
ZINC07333359
   27    28     0     0     0
SMALL
USER_CHARGES
5-[3-(4-bromo-2-fluoro-phenyl)prop-2-enoyl]thiophene-2-carboxylic acid
@<TRIPOS>ATOM
      1 C1          1.2319   -2.0690   -0.0218 C.ar      1 <0>        -0.0982
      2 C2          1.2211   -0.6912   -0.0192 C.ar      1 <0>        -0.0682
      3 C3          0.0021   -0.0041    0.0020 C.ar      1 <0>        -0.0846
      4 C4         -1.2002   -0.7255    0.0096 C.ar      1 <0>         0.1256
      5 C5         -1.1713   -2.1064    0.0014 C.ar      1 <0>        -0.1287
      6 C6          0.0402   -2.7762   -0.0142 C.ar      1 <0>        -0.0594
      7 Br1         0.0689   -4.6669   -0.0246 Br        1 <0>        -0.0337
      8 F1         -2.3827   -0.0723    0.0244 F         1 <0>        -0.1242
      9 C7         -0.0179    1.4651    0.0101 C.2       1 <0>        -0.0387
     10 C8          1.1435    2.1569    0.0027 C.2       1 <0>        -0.1950
     11 C9          1.1237    3.6187    0.0108 C.2       1 <0>         0.4719
     12 O1          0.0605    4.2134    0.0241 O.2       1 <0>        -0.4602
     13 C10         2.3887    4.3721    0.0027 C.2       1 <0>        -0.2969
     14 C11         2.5852    5.7466    0.0025 C.2       1 <0>        -0.0631
     15 C12         3.8634    6.2265   -0.0024 C.2       1 <0>        -0.1791
     16 C13         4.9158    5.3210   -0.0176 C.2       1 <0>        -0.1002
     17 S1          4.0629    3.7527   -0.0172 S.3       1 <0>         0.1368
     18 C14         6.3612    5.5856   -0.0311 C.2       1 <0>         0.5205
     19 O2          6.7694    6.7306   -0.0297 O.co2     1 <0>        -0.6021
     20 H1          2.1725   -2.5996   -0.0336 H         1 <0>         0.1465
     21 H2          2.1514   -0.1427   -0.0293 H         1 <0>         0.1525
     22 H3         -2.0957   -2.6648    0.0069 H         1 <0>         0.1489
     23 H4         -0.9604    1.9924    0.0174 H         1 <0>         0.1430
     24 H5          2.0860    1.6297   -0.0091 H         1 <0>         0.1373
     25 H6          1.7433    6.4230    0.0095 H         1 <0>         0.1363
     26 H7          4.0521    7.2898    0.0008 H         1 <0>         0.1439
     27 O3          7.2345    4.5585   -0.0451 O.co2     1 <0>        -0.7308
@<TRIPOS>BOND
     1    1    6 ar
     2    1    2 ar
     3    1   20 1
     4    2    3 ar
     5    2   21 1
     6    3    4 ar
     7    3    9 1
     8    4    5 ar
     9    4    8 1
    10    5    6 ar
    11    5   22 1
    12    6    7 1
    13    9   10 2
    14    9   23 1
    15   10   11 1
    16   10   24 1
    17   11   12 2
    18   11   13 1
    19   13   17 1
    20   13   14 2
    21   14   15 1
    22   14   25 1
    23   15   16 2
    24   15   26 1
    25   16   17 1
    26   16   18 1
    27   18   19 2
    28   18   27 1
@<TRIPOS>MOLECULE
ZINC41065706
   25    26     0     0     0
SMALL
USER_CHARGES

@<TRIPOS>ATOM
      1 C1         -0.0167    1.3836    0.0096 C.ar      1 <0>        -0.1411
      2 C2          1.1707    2.0912    0.0021 C.ar      1 <0>        -0.0864
      3 C3          2.3796    1.4182   -0.0135 C.ar      1 <0>        -0.0241
      4 C4          2.4034    0.0315   -0.0211 C.ar      1 <0>         0.0927
      5 C5          1.2165   -0.6809   -0.0131 C.ar      1 <0>        -0.0758
      6 C6          0.0021   -0.0041    0.0020 C.ar      1 <0>         0.2786
      7 N1         -1.2000   -0.7214    0.0101 N.2       1 <0>        -1.0689
      8 S1         -1.1762   -2.3772    0.0009 S.o2      1 <0>         2.6161
      9 O1         -0.6320   -2.7686   -1.2520 O.2       1 <0>        -1.0110
     10 O2         -0.6074   -2.7820    1.2386 O.2       1 <0>        -0.9951
     11 C7         -2.8517   -2.9223    0.0146 C.ar      1 <0>        -0.6653
     12 C8         -3.3718   -3.6190   -1.0648 C.ar      1 <0>         0.0550
     13 C9         -4.6962   -4.0291   -1.0101 C.ar      1 <0>        -0.1750
     14 C10        -5.4482   -3.7314    0.1115 C.ar      1 <0>         0.1852
     15 N2         -4.9205   -3.0660    1.1204 N.ar      1 <0>        -0.4849
     16 C11        -3.6631   -2.6654    1.1054 C.ar      1 <0>         0.2765
     17 Cl1        -3.0219   -1.8000    2.4669 Cl        1 <0>         0.0240
     18 Br1        -5.4634   -4.9826   -2.4516 Br        1 <0>        -0.0233
     19 F1          1.2382   -2.0317   -0.0205 F         1 <0>        -0.1258
     20 F2          3.5847   -0.6239   -0.0367 F         1 <0>        -0.1328
     21 F3          3.5383    2.1128   -0.0217 F         1 <0>        -0.1450
     22 H1         -0.9592    1.9107    0.0260 H         1 <0>         0.1419
     23 H2          1.1548    3.1711    0.0080 H         1 <0>         0.1377
     24 H3         -2.7608   -3.8371   -1.9282 H         1 <0>         0.1689
     25 H4         -6.4798   -4.0471    0.1617 H         1 <0>         0.1780
@<TRIPOS>BOND
     1    1    6 ar
     2    1    2 ar
     3    1   22 1
     4    2    3 ar
     5    2   23 1
     6    3    4 ar
     7    3   21 1
     8    4    5 ar
     9    4   20 1
    10    5    6 ar
    11    5   19 1
    12    6    7 1
    13    7    8 1
    14    8    9 2
    15    8   10 2
    16    8   11 1
    17   11   16 ar
    18   11   12 ar
    19   12   13 ar
    20   12   24 1
    21   13   14 ar
    22   13   18 1
    23   14   15 ar
    24   14   25 1
    25   15   16 ar
    26   16   17 1
@<TRIPOS>MOLECULE
ZINC44592330
   30    32     0     0     0
SMALL
USER_CHARGES

@<TRIPOS>ATOM
      1 C1         -0.0163    1.3510    0.0095 C.2       1 <0>        -0.1861
      2 C2          1.1834    2.0381    0.0017 C.2       1 <0>        -0.1034
      3 C3          2.3432    1.3350   -0.0131 C.2       1 <0>        -0.2088
      4 S1          1.7534   -0.3501   -0.0166 S.3       1 <0>         0.1481
      5 C4          0.0021   -0.0041    0.0020 C.2       1 <0>        -0.0810
      6 C5         -1.1557   -0.9688    0.0086 C.3       1 <0>         0.1276
      7 N1         -1.5459   -1.2748   -1.3741 N.3       1 <0>        -0.5062
      8 C6         -2.0563   -0.0763   -2.0549 C.3       1 <0>         0.0503
      9 C7         -2.0586   -0.3311   -3.5718 C.3       1 <0>        -0.0258
     10 C8         -2.6645   -1.6764   -3.8061 C.2       1 <0>        -0.1529
     11 C9         -2.8921   -2.6404   -2.8704 C.2       1 <0>        -0.0794
     12 C10        -3.4745   -3.8218   -3.3232 C.2       1 <0>        -0.1230
     13 C11        -3.7809   -3.9665   -4.6337 C.2       1 <0>        -0.1912
     14 S2         -3.2498   -2.4006   -5.3118 S.3       1 <0>        -0.0078
     15 C12        -2.5067   -2.3845   -1.4165 C.3       1 <0>         0.0770
     16 H1         -3.3956   -2.1209   -0.8433 H         1 <0>         0.0483
     17 C13        -1.8748   -3.6230   -0.8353 C.2       1 <0>         0.5090
     18 O1         -2.5580   -4.6070   -0.6085 O.co2     1 <0>        -0.6910
     19 O2         -0.6802   -3.6411   -0.5918 O.co2     1 <0>        -0.6665
     20 Br1         4.1230    1.9737   -0.0272 Br        1 <0>         0.0191
     21 H2         -0.9542    1.8862    0.0258 H         1 <0>         0.1350
     22 H3          1.1969    3.1180    0.0070 H         1 <0>         0.1325
     23 H4         -0.8599   -1.8878    0.5145 H         1 <0>         0.1233
     24 H5         -1.9992   -0.5204    0.5334 H         1 <0>         0.0473
     25 H6         -3.0719    0.1308   -1.7177 H         1 <0>         0.0325
     26 H7         -1.4134    0.7742   -1.8283 H         1 <0>         0.0831
     27 H8         -2.6513    0.4335   -4.0739 H         1 <0>         0.0762
     28 H9         -1.0366   -0.3153   -3.9506 H         1 <0>         0.0844
     29 H10        -3.6814   -4.6226   -2.6287 H         1 <0>         0.1487
     30 H11        -4.2300   -4.8091   -5.1383 H         1 <0>         0.1808
@<TRIPOS>BOND
     1    1    5 2
     2    1    2 1
     3    1   21 1
     4    2    3 2
     5    2   22 1
     6    3    4 1
     7    3   20 1
     8    4    5 1
     9    5    6 1
    10    6    7 1
    11    6   23 1
    12    6   24 1
    13    7   15 1
    14    7    8 1
    15    8    9 1
    16    8   25 1
    17    8   26 1
    18    9   10 1
    19    9   27 1
    20    9   28 1
    21   10   14 1
    22   10   11 2
    23   11   12 1
    24   11   15 1
    25   12   13 2
    26   12   29 1
    27   13   14 1
    28   13   30 1
    29   15   16 1
    30   15   17 1
    31   17   18 2
    32   17   19 1
@<TRIPOS>MOLECULE
ZINC49513733
   37    38     0     0     0
SMALL
USER_CHARGES

@<TRIPOS>ATOM
      1 C1         -0.5046    1.4537    0.0804 C.3       1 <0>        -0.1098
      2 C2         -0.2313   -0.0276    0.0357 C.ar      1 <0>        -0.0261
      3 C3         -0.3306   -0.7130   -1.1575 C.ar      1 <0>        -0.1148
      4 C4         -0.0803   -2.0738   -1.2000 C.ar      1 <0>        -0.0794
      5 C5          0.2714   -2.7549   -0.0468 C.ar      1 <0>        -0.1177
      6 C6          0.3737   -2.0802    1.1517 C.ar      1 <0>        -0.0662
      7 C7          0.1282   -0.7074    1.1995 C.ar      1 <0>        -0.0461
      8 C8          0.2424    0.0232    2.4811 C.2       1 <0>         0.5187
      9 O1          0.4659   -0.6559    3.6291 O.3       1 <0>        -0.7046
     10 N1          0.1278    1.3181    2.5037 N.2       1 <0>        -1.0491
     11 S1          0.2555    2.1358    3.9380 S.o2      1 <0>         2.5630
     12 O2         -0.8459    1.6826    4.7131 O.2       1 <0>        -1.0049
     13 O3          1.5893    1.9041    4.3699 O.2       1 <0>        -0.9997
     14 C9          0.0350    3.8823    3.5002 C.3       1 <0>        -0.5687
     15 C10         1.0455    4.2684    2.4182 C.3       1 <0>        -0.0969
     16 C11         0.8595    5.7415    2.0490 C.3       1 <0>        -0.1120
     17 C12         1.0827    6.6101    3.2886 C.3       1 <0>        -0.1213
     18 C13         0.0721    6.2240    4.3705 C.3       1 <0>        -0.1083
     19 C14         0.2581    4.7509    4.7398 C.3       1 <0>        -0.1085
     20 Br1        -0.2198   -3.0063   -2.8392 Br        1 <0>        -0.0713
     21 H1          0.4373    1.9990    0.0198 H         1 <0>         0.0730
     22 H2         -1.1400    1.7315   -0.7605 H         1 <0>         0.0373
     23 H3         -1.0088    1.7021    1.0144 H         1 <0>         0.1173
     24 H4         -0.6045   -0.1869   -2.0601 H         1 <0>         0.1286
     25 H5          0.4655   -3.8166   -0.0859 H         1 <0>         0.1287
     26 H6          0.6474   -2.6125    2.0506 H         1 <0>         0.1411
     27 H7         -0.9765    4.0378    3.1248 H         1 <0>         0.1247
     28 H8          2.0570    4.1128    2.7936 H         1 <0>         0.0707
     29 H9          0.8865    3.6496    1.5351 H         1 <0>         0.0893
     30 H10         1.5794    6.0165    1.2782 H         1 <0>         0.0620
     31 H11        -0.1519    5.8970    1.6736 H         1 <0>         0.0618
     32 H12         2.0941    6.4545    3.6639 H         1 <0>         0.0619
     33 H13         0.9501    7.6595    3.0255 H         1 <0>         0.0584
     34 H14         0.2311    6.8428    5.2536 H         1 <0>         0.0619
     35 H15        -0.9393    6.3795    3.9951 H         1 <0>         0.0629
     36 H16        -0.4618    4.4759    5.5106 H         1 <0>         0.0697
     37 H17         1.2696    4.5954    5.1152 H         1 <0>         0.0740
@<TRIPOS>BOND
     1    1    2 1
     2    1   21 1
     3    1   22 1
     4    1   23 1
     5    2    7 ar
     6    2    3 ar
     7    3    4 ar
     8    3   24 1
     9    4    5 ar
    10    4   20 1
    11    5    6 ar
    12    5   25 1
    13    6    7 ar
    14    6   26 1
    15    7    8 1
    16    8    9 1
    17    8   10 2
    18   10   11 1
    19   11   12 2
    20   11   13 2
    21   11   14 1
    22   14   19 1
    23   14   15 1
    24   14   27 1
    25   15   16 1
    26   15   28 1
    27   15   29 1
    28   16   17 1
    29   16   30 1
    30   16   31 1
    31   17   18 1
    32   17   32 1
    33   17   33 1
    34   18   19 1
    35   18   34 1
    36   18   35 1
    37   19   36 1
    38   19   37 1
@<TRIPOS>MOLECULE
ZINC61692328
   25    26     0     0     0
SMALL
USER_CHARGES

@<TRIPOS>ATOM
      1 C1         -0.0167    1.3792    0.0096 C.ar      1 <0>        -0.1857
      2 C2          1.1697    2.0899    0.0021 C.ar      1 <0>        -0.0640
      3 C3          2.3780    1.4200   -0.0130 C.ar      1 <0>        -0.0784
      4 C4          2.4004    0.0299   -0.0206 C.ar      1 <0>         0.2922
      5 C5          1.2077   -0.6805   -0.0130 C.ar      1 <0>        -0.2276
      6 C6          0.0021   -0.0041    0.0020 C.ar      1 <0>        -0.0223
      7 Br1        -1.6232   -0.9707    0.0129 Br        1 <0>        -0.0792
      8 N1          3.6208   -0.6508   -0.0363 N.2       1 <0>        -1.0631
      9 S1          3.6452   -2.3066   -0.0454 S.o2      1 <0>         2.5991
     10 O1          3.1128   -2.7275    1.2031 O.2       1 <0>        -1.0135
     11 O2          3.0882   -2.7142   -1.2875 O.2       1 <0>        -1.0136
     12 C7          5.3359   -2.8025   -0.0648 C.ar      1 <0>        -0.5594
     13 C8          6.0069   -2.9904   -1.2642 C.ar      1 <0>        -0.0723
     14 C9          7.3322   -3.3795   -1.2412 C.ar      1 <0>         0.0973
     15 N2          7.9593   -3.5726   -0.0968 N.ar      1 <0>        -0.4534
     16 C10         7.3534   -3.4035    1.0631 C.ar      1 <0>         0.1537
     17 C11         6.0281   -3.0085    1.1178 C.ar      1 <0>        -0.0556
     18 Cl1         8.2305   -3.6725    2.5369 Cl        1 <0>        -0.0315
     19 Cl2         3.8667    2.3131   -0.0230 Cl        1 <0>        -0.0790
     20 H1         -0.9598    1.9051    0.0260 H         1 <0>         0.1236
     21 H2          1.1516    3.1698    0.0077 H         1 <0>         0.1268
     22 H3          1.2216   -1.7604   -0.0193 H         1 <0>         0.1160
     23 H4          5.4992   -2.8348   -2.2047 H         1 <0>         0.1581
     24 H5          7.8610   -3.5277   -2.1711 H         1 <0>         0.1726
     25 H6          5.5384   -2.8670    2.0699 H         1 <0>         0.1593
@<TRIPOS>BOND
     1    1    6 ar
     2    1    2 ar
     3    1   20 1
     4    2    3 ar
     5    2   21 1
     6    3    4 ar
     7    3   19 1
     8    4    5 ar
     9    4    8 1
    10    5    6 ar
    11    5   22 1
    12    6    7 1
    13    8    9 1
    14    9   10 2
    15    9   11 2
    16    9   12 1
    17   12   17 ar
    18   12   13 ar
    19   13   14 ar
    20   13   23 1
    21   14   15 ar
    22   14   24 1
    23   15   16 ar
    24   16   17 ar
    25   16   18 1
    26   17   25 1
@<TRIPOS>MOLECULE
ZINC01508575
   45    48     0     0     0
SMALL
USER_CHARGES
2-(2-amino-4-methoxy-phenyl)-5-(4-aminophenoxy)-isoindoline-1,3-dione
@<TRIPOS>ATOM
      1 C1         -9.5541    2.1159   -1.3337 C.3       1 <0>         0.0251
      2 O1         -8.9234    2.1888   -0.0535 O.3       1 <0>        -0.3126
      3 C2         -7.5644    2.2272   -0.0362 C.ar      1 <0>         0.1930
      4 C3         -6.8551    2.1949   -1.2282 C.ar      1 <0>        -0.2538
      5 C4         -5.4739    2.2400   -1.2152 C.ar      1 <0>        -0.0078
      6 C5         -4.7926    2.3053   -0.0097 C.ar      1 <0>        -0.0053
      7 C6         -5.5028    2.3374    1.1896 C.ar      1 <0>         0.2794
      8 C7         -6.8891    2.2982    1.1725 C.ar      1 <0>        -0.2257
      9 N1         -4.8188    2.4095    2.4073 N.pl3     1 <0>        -0.8634
     10 N2         -3.3879    2.3448    0.0032 N.am      1 <0>        -0.5184
     11 C8         -2.5967    1.2584    0.0581 C.2       1 <0>         0.5711
     12 O2         -2.9780    0.1058    0.1035 O.2       1 <0>        -0.4458
     13 C9         -1.1885    1.6992    0.0485 C.ar      1 <0>        -0.1461
     14 C10         0.0320    1.0405    0.0960 C.ar      1 <0>        -0.0236
     15 C11         1.2076    1.7688    0.0777 C.ar      1 <0>        -0.1200
     16 C12         1.1745    3.1557    0.0174 C.ar      1 <0>         0.1248
     17 C13        -0.0449    3.8291   -0.0249 C.ar      1 <0>        -0.0511
     18 C14        -1.2255    3.1088   -0.0070 C.ar      1 <0>        -0.1194
     19 C15        -2.6580    3.4740   -0.0376 C.2       1 <0>         0.5713
     20 O3         -3.1011    4.6036   -0.0911 O.2       1 <0>        -0.4428
     21 O4          2.3349    3.8587    0.0000 O.3       1 <0>        -0.2536
     22 C16         3.1318    3.7482   -1.0961 C.ar      1 <0>         0.0530
     23 C17         2.6947    3.0334   -2.2019 C.ar      1 <0>        -0.1412
     24 C18         3.5015    2.9248   -3.3173 C.ar      1 <0>        -0.1612
     25 C19         4.7551    3.5224   -3.3280 C.ar      1 <0>         0.1944
     26 C20         5.1941    4.2333   -2.2187 C.ar      1 <0>        -0.1623
     27 C21         4.3840    4.3455   -1.1060 C.ar      1 <0>        -0.0852
     28 N3          5.5755    3.4079   -4.4555 N.pl3     1 <0>        -0.8787
     29 H1        -10.6362    2.0915   -1.2047 H         1 <0>         0.1028
     30 H2         -9.2783    2.9892   -1.9248 H         1 <0>         0.0593
     31 H3         -9.2289    1.2116   -1.8480 H         1 <0>         0.0593
     32 H4         -7.3836    2.1389   -2.1684 H         1 <0>         0.1361
     33 H5         -4.9246    2.2200   -2.1449 H         1 <0>         0.1302
     34 H6         -7.4420    2.3233    2.0999 H         1 <0>         0.1396
     35 H7         -3.8493    2.4372    2.4181 H         1 <0>         0.3968
     36 H8         -5.3139    2.4318    3.2412 H         1 <0>         0.4067
     37 H9          0.0638   -0.0380    0.1426 H         1 <0>         0.1516
     38 H10         2.1574    1.2557    0.1109 H         1 <0>         0.1518
     39 H11        -0.0679    4.9078   -0.0718 H         1 <0>         0.1536
     40 H12         1.7215    2.5652   -2.1919 H         1 <0>         0.1275
     41 H13         3.1595    2.3718   -4.1796 H         1 <0>         0.1259
     42 H14         6.1687    4.6986   -2.2264 H         1 <0>         0.1312
     43 H15         4.7251    4.8986   -0.2434 H         1 <0>         0.1350
     44 H16         6.4511    3.8252   -4.4625 H         1 <0>         0.3995
     45 H17         5.2686    2.9113   -5.2301 H         1 <0>         0.3991
@<TRIPOS>BOND
     1    1    2 1
     2    1   29 1
     3    1   30 1
     4    1   31 1
     5    2    3 1
     6    3    8 ar
     7    3    4 ar
     8    4    5 ar
     9    4   32 1
    10    5    6 ar
    11    5   33 1
    12    6    7 ar
    13    6   10 1
    14    7    8 ar
    15    7    9 1
    16    8   34 1
    17    9   35 1
    18    9   36 1
    19   10   19 am
    20   10   11 am
    21   11   12 2
    22   11   13 1
    23   13   18 ar
    24   13   14 ar
    25   14   15 ar
    26   14   37 1
    27   15   16 ar
    28   15   38 1
    29   16   17 ar
    30   16   21 1
    31   17   18 ar
    32   17   39 1
    33   18   19 1
    34   19   20 2
    35   21   22 1
    36   22   27 ar
    37   22   23 ar
    38   23   24 ar
    39   23   40 1
    40   24   25 ar
    41   24   41 1
    42   25   26 ar
    43   25   28 1
    44   26   27 ar
    45   26   42 1
    46   27   43 1
    47   28   44 1
    48   28   45 1
@<TRIPOS>MOLECULE
ZINC12557978
   39    40     0     0     0
SMALL
USER_CHARGES
N-[2-(2-amino-2-oxo-ethyl)sulfanylphenyl]-2-[(4-bromophenyl)amino]acetamide
@<TRIPOS>ATOM
      1 C1          0.1104   -2.6261   -0.6427 C.ar      1 <0>        -0.1003
      2 C2          1.2290   -2.0626   -0.0563 C.ar      1 <0>        -0.1148
      3 C3          1.1450   -0.8263    0.5554 C.ar      1 <0>        -0.1150
      4 C4         -0.0668   -0.1506    0.5905 C.ar      1 <0>        -0.1319
      5 C5         -1.1949   -0.7192   -0.0015 C.ar      1 <0>         0.1693
      6 C6         -1.0998   -1.9581   -0.6167 C.ar      1 <0>        -0.1119
      7 N1         -2.4206   -0.0404    0.0259 N.am      1 <0>        -0.6622
      8 C7         -3.5749   -0.7298   -0.0685 C.2       1 <0>         0.5137
      9 O1         -3.5582   -1.9426   -0.0762 O.2       1 <0>        -0.5099
     10 C8         -4.8864    0.0063   -0.1645 C.3       1 <0>         0.1050
     11 N2         -5.9834   -0.9604   -0.2566 N.pl3     1 <0>        -0.7327
     12 C9         -7.3031   -0.5122   -0.3554 C.ar      1 <0>         0.2326
     13 C10        -7.5769    0.8496   -0.3607 C.ar      1 <0>        -0.1956
     14 C11        -8.8820    1.2897   -0.4633 C.ar      1 <0>        -0.0398
     15 C12        -9.9169    0.3755   -0.5501 C.ar      1 <0>        -0.1477
     16 C13        -9.6476   -0.9816   -0.5398 C.ar      1 <0>        -0.0401
     17 C14        -8.3442   -1.4275   -0.4427 C.ar      1 <0>        -0.1854
     18 Br1       -11.7030    0.9821   -0.6838 Br        1 <0>        -0.0595
     19 S1         -0.1785    1.4237    1.3740 S.3       1 <0>        -0.0412
     20 C15         1.5034    1.7332    1.9788 C.3       1 <0>        -0.1499
     21 C16         1.5479    3.0668    2.6793 C.2       1 <0>         0.5368
     22 O2          0.5438    3.7419    2.7623 O.2       1 <0>        -0.5202
     23 N3          2.7035    3.5092    3.2135 N.am      1 <0>        -0.8472
     24 H1          0.1825   -3.5909   -1.1227 H         1 <0>         0.1310
     25 H2          2.1719   -2.5887   -0.0798 H         1 <0>         0.1287
     26 H3          2.0214   -0.3873    1.0088 H         1 <0>         0.1256
     27 H4         -1.9710   -2.4012   -1.0760 H         1 <0>         0.1509
     28 H5         -2.4383    0.9255    0.1128 H         1 <0>         0.4162
     29 H6         -5.0213    0.6256    0.7223 H         1 <0>         0.0995
     30 H7         -4.8840    0.6387   -1.0524 H         1 <0>         0.1001
     31 H8         -5.7935   -1.9116   -0.2489 H         1 <0>         0.4140
     32 H9         -6.7698    1.5635   -0.2888 H         1 <0>         0.1295
     33 H10        -9.0952    2.3484   -0.4716 H         1 <0>         0.1323
     34 H11       -10.4575   -1.6928   -0.6081 H         1 <0>         0.1328
     35 H12        -8.1345   -2.4870   -0.4350 H         1 <0>         0.1308
     36 H13         1.7890    0.9464    2.6770 H         1 <0>         0.1211
     37 H14         2.1963    1.7415    1.1374 H         1 <0>         0.1210
     38 H15         3.5065    2.9693    3.1470 H         1 <0>         0.4046
     39 H16         2.7321    4.3676    3.6643 H         1 <0>         0.4100
@<TRIPOS>BOND
     1    1    6 ar
     2    1    2 ar
     3    1   24 1
     4    2    3 ar
     5    2   25 1
     6    3    4 ar
     7    3   26 1
     8    4    5 ar
     9    4   19 1
    10    5    6 ar
    11    5    7 1
    12    6   27 1
    13    7    8 am
    14    7   28 1
    15    8    9 2
    16    8   10 1
    17   10   11 1
    18   10   29 1
    19   10   30 1
    20   11   12 1
    21   11   31 1
    22   12   17 ar
    23   12   13 ar
    24   13   14 ar
    25   13   32 1
    26   14   15 ar
    27   14   33 1
    28   15   16 ar
    29   15   18 1
    30   16   17 ar
    31   16   34 1
    32   17   35 1
    33   19   20 1
    34   20   21 1
    35   20   36 1
    36   20   37 1
    37   21   22 2
    38   21   23 am
    39   23   38 1
    40   23   39 1
@<TRIPOS>MOLECULE
ZINC40758275
   43    47     0     0     0
SMALL
USER_CHARGES

@<TRIPOS>ATOM
      1 C1         -0.0203    1.3643   -0.0902 C.ar      1 <0>        -0.1064
      2 C2          1.1524    2.1056   -0.0799 C.ar      1 <0>        -0.1109
      3 C3          2.3691    1.4482   -0.0764 C.ar      1 <0>        -0.0573
      4 C4          2.3978    0.0761   -0.0833 C.ar      1 <0>        -0.1950
      5 C5          1.2243   -0.7116   -0.0939 C.ar      1 <0>         0.1086
      6 C6         -0.0011   -0.0060   -0.0972 C.ar      1 <0>        -0.0771
      7 N1          1.4168   -2.0486   -0.1000 N.2       1 <0>        -0.5657
      8 C7          2.6141   -2.5889   -0.0964 C.2       1 <0>         0.3767
      9 S1          3.6797   -1.1542   -0.0829 S.3       1 <0>         0.1184
     10 N2          2.9614   -3.9264   -0.1017 N.pl3     1 <0>        -0.5846
     11 C8          4.3027   -4.2970   -0.0965 C.ar      1 <0>         0.3747
     12 C9          4.6657   -5.6450   -0.1075 C.ar      1 <0>         0.0449
     13 C10         6.0258   -5.9615   -0.1015 C.ar      1 <0>         0.3953
     14 N3          6.9174   -4.9734   -0.0856 N.ar      1 <0>        -0.5429
     15 C11         6.5319   -3.7136   -0.0756 C.ar      1 <0>         0.3312
     16 N4          5.2592   -3.3720   -0.0863 N.ar      1 <0>        -0.5494
     17 N5          6.4421   -7.2878   -0.1116 N.pl3     1 <0>        -0.6307
     18 C12         7.7980   -7.5924   -0.2314 C.ar      1 <0>         0.1847
     19 C13         8.6600   -6.6994   -0.8305 C.ar      1 <0>        -0.1224
     20 C14        10.0148   -6.9908   -0.9559 C.ar      1 <0>        -0.0839
     21 C15        10.5253   -8.1648   -0.4905 C.ar      1 <0>        -0.1259
     22 C16         9.6795   -9.1007    0.1261 C.ar      1 <0>        -0.0801
     23 C17         8.2992   -8.8157    0.2656 C.ar      1 <0>         0.1031
     24 N6          7.4928   -9.7016    0.8558 N.ar      1 <0>        -0.4796
     25 C18         7.9519  -10.8389    1.3188 C.ar      1 <0>         0.1265
     26 C19         9.2991  -11.1800    1.2191 C.ar      1 <0>        -0.1723
     27 C20        10.1761  -10.3234    0.6171 C.ar      1 <0>        -0.0578
     28 N7          3.6907   -6.6542   -0.1237 N.pl3     1 <0>        -0.8697
     29 H1         -0.9698    1.8788   -0.0883 H         1 <0>         0.1313
     30 H2          1.1155    3.1850   -0.0750 H         1 <0>         0.1356
     31 H3          3.2908    2.0110   -0.0688 H         1 <0>         0.1311
     32 H4         -0.9323   -0.5531   -0.1048 H         1 <0>         0.1286
     33 H5          2.2702   -4.6069   -0.1091 H         1 <0>         0.4291
     34 H6          7.2821   -2.9368   -0.0628 H         1 <0>         0.2078
     35 H7          5.7896   -8.0015   -0.0353 H         1 <0>         0.4227
     36 H8          8.2791   -5.7618   -1.2078 H         1 <0>         0.1585
     37 H9         10.6712   -6.2758   -1.4294 H         1 <0>         0.1317
     38 H10        11.5792   -8.3756   -0.5960 H         1 <0>         0.1302
     39 H11         7.2681  -11.5294    1.7900 H         1 <0>         0.1594
     40 H12         9.6481  -12.1243    1.6102 H         1 <0>         0.1385
     41 H13        11.2237  -10.5715    0.5312 H         1 <0>         0.1410
     42 H14         2.7496   -6.4193   -0.1274 H         1 <0>         0.3998
     43 H15         3.9579   -7.5866   -0.1313 H         1 <0>         0.4024
@<TRIPOS>BOND
     1    1    6 ar
     2    1    2 ar
     3    1   29 1
     4    2    3 ar
     5    2   30 1
     6    3    4 ar
     7    3   31 1
     8    4    9 1
     9    4    5 ar
    10    5    6 ar
    11    5    7 1
    12    6   32 1
    13    7    8 2
    14    8    9 1
    15    8   10 1
    16   10   11 1
    17   10   33 1
    18   11   16 ar
    19   11   12 ar
    20   12   13 ar
    21   12   28 1
    22   13   14 ar
    23   13   17 1
    24   14   15 ar
    25   15   16 ar
    26   15   34 1
    27   17   18 1
    28   17   35 1
    29   18   23 ar
    30   18   19 ar
    31   19   20 ar
    32   19   36 1
    33   20   21 ar
    34   20   37 1
    35   21   22 ar
    36   21   38 1
    37   22   27 ar
    38   22   23 ar
    39   23   24 ar
    40   24   25 ar
    41   25   26 ar
    42   25   39 1
    43   26   27 ar
    44   26   40 1
    45   27   41 1
    46   28   42 1
    47   28   43 1
@<TRIPOS>MOLECULE
ZINC56710395
   48    49     0     0     0
SMALL
USER_CHARGES

@<TRIPOS>ATOM
      1 C1         -1.2670    1.1822    0.1825 C.3       1 <0>        -0.1159
      2 C2         -0.5855   -0.1584    0.0850 C.ar      1 <0>        -0.0703
      3 C3         -0.5719   -0.8406   -1.1159 C.ar      1 <0>        -0.1299
      4 C4          0.0552   -2.0744   -1.2058 C.ar      1 <0>         0.1178
      5 C5          0.6688   -2.6243   -0.0897 C.ar      1 <0>        -0.1969
      6 C6          0.6555   -1.9436    1.1115 C.ar      1 <0>        -0.0731
      7 C7          0.0336   -0.7053    1.2006 C.ar      1 <0>         0.1249
      8 N1          0.0251   -0.0110    2.4180 N.am      1 <0>        -0.6815
      9 C8         -0.0564   -0.6890    3.5799 C.2       1 <0>         0.7061
     10 O1         -0.0401   -1.9048    3.5768 O.2       1 <0>        -0.5715
     11 N2         -0.1560   -0.0194    4.7453 N.am      1 <0>        -0.7384
     12 C9         -0.2446   -0.7564    6.0083 C.3       1 <0>         0.1706
     13 H1          0.3635   -1.6589    5.9458 H         1 <0>         0.0954
     14 C10        -1.7017   -1.1406    6.2735 C.3       1 <0>        -0.1347
     15 C11        -1.7942   -1.9103    7.5926 C.3       1 <0>        -0.1121
     16 C12        -1.2832   -1.0291    8.7342 C.3       1 <0>        -0.1224
     17 C13         0.1738   -0.6449    8.4690 C.3       1 <0>        -0.1269
     18 H2          0.7819   -1.5474    8.4065 H         1 <0>         0.1193
     19 C14         0.2664    0.1248    7.1500 C.3       1 <0>        -0.1288
     20 C15         0.6848    0.2363    9.6106 C.3       1 <0>         0.4546
     21 F1          0.6002   -0.4676   10.8167 F         1 <0>        -0.1811
     22 F2          2.0171    0.5875    9.3682 F         1 <0>        -0.1829
     23 F3         -0.0957    1.3945    9.6909 F         1 <0>        -0.1816
     24 O2          0.0683   -2.7455   -2.3884 O.3       1 <0>        -0.2901
     25 C16         0.7321   -4.0108   -2.4090 C.3       1 <0>         0.0393
     26 C17         0.6445   -4.6015   -3.7926 C.2       1 <0>         0.5194
     27 O3          0.0701   -3.9984   -4.6742 O.2       1 <0>        -0.5173
     28 N3          1.2044   -5.8001   -4.0503 N.am      1 <0>        -0.8505
     29 H3         -0.5526    1.9709   -0.0533 H         1 <0>         0.0751
     30 H4         -2.0965    1.2203   -0.5235 H         1 <0>         0.0752
     31 H5         -1.6447    1.3249    1.1950 H         1 <0>         0.0657
     32 H6         -1.0499   -0.4133   -1.9850 H         1 <0>         0.1372
     33 H7          1.1566   -3.5853   -0.1603 H         1 <0>         0.1303
     34 H8          1.1328   -2.3720    1.9805 H         1 <0>         0.1456
     35 H9          0.0779    0.9576    2.4243 H         1 <0>         0.4063
     36 H10        -0.1691    0.9505    4.7478 H         1 <0>         0.3984
     37 H11        -2.3098   -0.2381    6.3361 H         1 <0>         0.0678
     38 H12        -2.0657   -1.7684    5.4602 H         1 <0>         0.0755
     39 H13        -2.8322   -2.1840    7.7815 H         1 <0>         0.0769
     40 H14        -1.1861   -2.8128    7.5301 H         1 <0>         0.0709
     41 H15        -1.8913   -0.1267    8.7967 H         1 <0>         0.0790
     42 H16        -1.3491   -1.5775    9.6739 H         1 <0>         0.0810
     43 H17         1.3044    0.3985    6.9610 H         1 <0>         0.0851
     44 H18        -0.3417    1.0272    7.2125 H         1 <0>         0.0843
     45 H19         1.7790   -3.8763   -2.1370 H         1 <0>         0.0952
     46 H20         0.2549   -4.6831   -1.6960 H         1 <0>         0.0954
     47 H21         1.6638   -6.2825   -3.3451 H         1 <0>         0.4037
     48 H22         1.1480   -6.1804   -4.9408 H         1 <0>         0.4099
@<TRIPOS>BOND
     1    1    2 1
     2    1   29 1
     3    1   30 1
     4    1   31 1
     5    2    7 ar
     6    2    3 ar
     7    3    4 ar
     8    3   32 1
     9    4    5 ar
    10    4   24 1
    11    5    6 ar
    12    5   33 1
    13    6    7 ar
    14    6   34 1
    15    7    8 1
    16    8    9 am
    17    8   35 1
    18    9   10 2
    19    9   11 am
    20   11   12 1
    21   11   36 1
    22   12   13 1
    23   12   19 1
    24   12   14 1
    25   14   15 1
    26   14   37 1
    27   14   38 1
    28   15   16 1
    29   15   39 1
    30   15   40 1
    31   16   17 1
    32   16   41 1
    33   16   42 1
    34   17   18 1
    35   17   19 1
    36   17   20 1
    37   19   43 1
    38   19   44 1
    39   20   21 1
    40   20   22 1
    41   20   23 1
    42   24   25 1
    43   25   26 1
    44   25   45 1
    45   25   46 1
    46   26   27 2
    47   26   28 am
    48   28   47 1
    49   28   48 1
@<TRIPOS>MOLECULE
ZINC59385085
   44    46     0     0     0
SMALL
USER_CHARGES

@<TRIPOS>ATOM
      1 C1          0.6581    1.3665    0.0816 C.3       1 <0>        -0.1335
      2 C2          0.3603   -0.1103    0.0454 C.2       1 <0>         0.1782
      3 C3         -0.9217   -0.5277   -0.0237 C.2       1 <0>        -0.2493
      4 C4         -1.1765   -2.0209   -0.0581 C.3       1 <0>         0.2254
      5 H1         -1.8155   -2.2723    0.7885 H         1 <0>         0.1060
      6 N1          0.0038   -2.9004   -0.0128 N.pl3     1 <0>        -0.6445
      7 C5          1.2243   -2.3329    0.0555 C.2       1 <0>         0.5583
      8 S1          2.6055   -3.3431    0.1081 S.2       1 <0>        -0.5944
      9 N2          1.3921   -1.0047    0.0775 N.pl3     1 <0>        -0.5993
     10 C6         -1.9395   -2.3331   -1.3196 C.ar      1 <0>        -0.1325
     11 C7         -1.2909   -2.3164   -2.5405 C.ar      1 <0>        -0.0805
     12 C8         -1.9882   -2.6018   -3.6984 C.ar      1 <0>        -0.1443
     13 C9         -3.3403   -2.9058   -3.6354 C.ar      1 <0>         0.1209
     14 C10        -3.9887   -2.9224   -2.4090 C.ar      1 <0>        -0.1409
     15 C11        -3.2858   -2.6414   -1.2535 C.ar      1 <0>        -0.0773
     16 O1         -4.0286   -3.1865   -4.7731 O.3       1 <0>        -0.4983
     17 C12        -1.9921    0.3987   -0.0624 C.2       1 <0>         0.6135
     18 O2         -2.6570    0.6031    0.9373 O.2       1 <0>        -0.4802
     19 N3         -2.2751    1.0542   -1.2055 N.am      1 <0>        -0.5749
     20 N4         -3.2631    2.0474   -1.2174 N.2       1 <0>        -0.2113
     21 C13        -3.5356    2.6786   -2.3182 C.2       1 <0>         0.1048
     22 C14        -4.5754    3.7239   -2.3306 C.ar      1 <0>        -0.0942
     23 C15        -4.8755    4.4015   -3.5148 C.ar      1 <0>        -0.0611
     24 C16        -5.8492    5.3781   -3.5192 C.ar      1 <0>        -0.1361
     25 C17        -6.5295    5.6886   -2.3545 C.ar      1 <0>        -0.0718
     26 C18        -6.2391    5.0237   -1.1773 C.ar      1 <0>        -0.1626
     27 C19        -5.2703    4.0381   -1.1580 C.ar      1 <0>         0.1380
     28 F1         -4.9912    3.3846   -0.0090 F         1 <0>        -0.1113
     29 H2          1.7362    1.5186    0.1320 H         1 <0>         0.0891
     30 H3          0.2663    1.8384   -0.8195 H         1 <0>         0.0935
     31 H4          0.1871    1.8108    0.9585 H         1 <0>         0.1013
     32 H5         -0.0949   -3.8652   -0.0315 H         1 <0>         0.4484
     33 H6          2.2970   -0.6582    0.1228 H         1 <0>         0.4423
     34 H7         -0.2383   -2.0796   -2.5890 H         1 <0>         0.1210
     35 H8         -1.4812   -2.5878   -4.6519 H         1 <0>         0.1330
     36 H9         -5.0413   -3.1588   -2.3573 H         1 <0>         0.1345
     37 H10        -3.7891   -2.6585   -0.2981 H         1 <0>         0.1322
     38 H11        -4.0309   -4.1240   -5.0102 H         1 <0>         0.3959
     39 H12        -1.7947    0.8383   -2.0201 H         1 <0>         0.3853
     40 H13        -3.0008    2.4382   -3.2251 H         1 <0>         0.1264
     41 H14        -4.3459    4.1613   -4.4248 H         1 <0>         0.1383
     42 H15        -6.0814    5.9025   -4.4344 H         1 <0>         0.1356
     43 H16        -7.2909    6.4546   -2.3651 H         1 <0>         0.1363
     44 H17        -6.7738    5.2716   -0.2722 H         1 <0>         0.1400
@<TRIPOS>BOND
     1    1    2 1
     2    1   29 1
     3    1   30 1
     4    1   31 1
     5    2    9 1
     6    2    3 2
     7    3    4 1
     8    3   17 1
     9    4    5 1
    10    4    6 1
    11    4   10 1
    12    6    7 1
    13    6   32 1
    14    7    8 2
    15    7    9 1
    16    9   33 1
    17   10   15 ar
    18   10   11 ar
    19   11   12 ar
    20   11   34 1
    21   12   13 ar
    22   12   35 1
    23   13   14 ar
    24   13   16 1
    25   14   15 ar
    26   14   36 1
    27   15   37 1
    28   16   38 1
    29   17   18 2
    30   17   19 am
    31   19   20 1
    32   19   39 1
    33   20   21 2
    34   21   22 1
    35   21   40 1
    36   22   27 ar
    37   22   23 ar
    38   23   24 ar
    39   23   41 1
    40   24   25 ar
    41   24   42 1
    42   25   26 ar
    43   25   43 1
    44   26   27 ar
    45   26   44 1
    46   27   28 1
@<TRIPOS>MOLECULE
ZINC03079093
   42    44     0     0     0
SMALL
USER_CHARGES
7-(3-phenylprop-2-enoylthiocarbamoylamino)-6-thiabicyclo[3.3.0]octa-7,9-diene-8-carboxamide
@<TRIPOS>ATOM
      1 C1         -7.2659   -0.6371    0.0327 C.ar      1 <0>        -0.1004
      2 C2         -7.2889    0.7467    0.0407 C.ar      1 <0>        -0.1229
      3 C3         -6.1085    1.4595    0.0390 C.ar      1 <0>        -0.0869
      4 C4         -4.8860    0.7804    0.0295 C.ar      1 <0>        -0.0895
      5 C5         -4.8712   -0.6180    0.0160 C.ar      1 <0>        -0.0964
      6 C6         -6.0601   -1.3164    0.0233 C.ar      1 <0>        -0.1240
      7 C7         -3.6215    1.5336    0.0276 C.2       1 <0>         0.0144
      8 C8         -2.4443    0.8751    0.0184 C.2       1 <0>        -0.2307
      9 C9         -1.1873    1.6238    0.0165 C.2       1 <0>         0.5295
     10 O1         -1.2038    2.8404    0.0232 O.2       1 <0>        -0.4161
     11 N1         -0.0111    0.9658    0.0074 N.am      1 <0>        -0.6318
     12 C10         1.1468    1.6555   -0.0000 C.2       1 <0>         0.4786
     13 S1          1.1236    3.3673    0.0094 S.2       1 <0>        -0.3732
     14 N2          2.3230    0.9976   -0.0148 N.pl3     1 <0>        -0.5536
     15 C11         3.5134    1.7067   -0.0223 C.2       1 <0>         0.0132
     16 C12         4.8079    1.2151   -0.0317 C.2       1 <0>        -0.1756
     17 C13         5.9011    2.1869   -0.0409 C.2       1 <0>        -0.1156
     18 C14         5.5190    3.4763   -0.0310 C.2       1 <0>        -0.2568
     19 S2          3.7437    3.4219   -0.0147 S.3       1 <0>         0.3457
     20 C15         6.6961    4.4136   -0.0392 C.3       1 <0>        -0.0380
     21 C16         7.8863    3.5396   -0.4927 C.3       1 <0>        -0.1192
     22 C17         7.4294    2.1344   -0.0530 C.3       1 <0>        -0.0603
     23 C18         5.0729   -0.2266   -0.0361 C.2       1 <0>         0.5778
     24 O2          5.1766   -0.8231   -1.0920 O.2       1 <0>        -0.5343
     25 N3          5.2019   -0.8916    1.1291 N.am      1 <0>        -0.8487
     26 H1         -8.1938   -1.1897    0.0341 H         1 <0>         0.1270
     27 H2         -8.2338    1.2697    0.0480 H         1 <0>         0.1294
     28 H3         -6.1281    2.5393    0.0452 H         1 <0>         0.1314
     29 H4         -3.9311   -1.1494    0.0037 H         1 <0>         0.1271
     30 H5         -6.0504   -2.3964    0.0174 H         1 <0>         0.1278
     31 H6         -3.6361    2.6134    0.0335 H         1 <0>         0.1424
     32 H7         -2.4297   -0.2048    0.0125 H         1 <0>         0.1356
     33 H8          0.0021   -0.0041    0.0020 H         1 <0>         0.4174
     34 H9          2.3361    0.0277   -0.0201 H         1 <0>         0.4131
     35 H10         6.5301    5.2263   -0.7464 H         1 <0>         0.0774
     36 H11         6.8742    4.8091    0.9607 H         1 <0>         0.0826
     37 H12         8.0156    3.5872   -1.5740 H         1 <0>         0.0743
     38 H13         8.8023    3.8306    0.0214 H         1 <0>         0.0798
     39 H14         7.7754    1.3852   -0.7652 H         1 <0>         0.0680
     40 H15         7.8082    1.9094    0.9440 H         1 <0>         0.0748
     41 H16         5.1193   -0.4163    1.9705 H         1 <0>         0.4041
     42 H17         5.3773   -1.8456    1.1261 H         1 <0>         0.4026
@<TRIPOS>BOND
     1    1    6 ar
     2    1    2 ar
     3    1   26 1
     4    2    3 ar
     5    2   27 1
     6    3    4 ar
     7    3   28 1
     8    4    5 ar
     9    4    7 1
    10    5    6 ar
    11    5   29 1
    12    6   30 1
    13    7    8 2
    14    7   31 1
    15    8    9 1
    16    8   32 1
    17    9   10 2
    18    9   11 am
    19   11   12 1
    20   11   33 1
    21   12   13 2
    22   12   14 1
    23   14   15 1
    24   14   34 1
    25   15   19 1
    26   15   16 2
    27   16   17 1
    28   16   23 1
    29   17   22 1
    30   17   18 2
    31   18   19 1
    32   18   20 1
    33   20   21 1
    34   20   35 1
    35   20   36 1
    36   21   22 1
    37   21   37 1
    38   21   38 1
    39   22   39 1
    40   22   40 1
    41   23   24 2
    42   23   25 am
    43   25   41 1
    44   25   42 1
@<TRIPOS>MOLECULE
ZINC14481118
   44    45     0     0     0
SMALL
USER_CHARGES
(3S)-N-[(1S)-1-(4-bromophenyl)propyl]-3-(2-thienyl)-3-ureido-propanamide
@<TRIPOS>ATOM
      1 C1          3.3114   -6.2307   -0.8223 C.3       1 <0>        -0.1435
      2 C2          3.7511   -6.3645   -2.2817 C.3       1 <0>        -0.1285
      3 C3          4.5549   -5.1275   -2.6876 C.3       1 <0>         0.1862
      4 H1          5.3848   -4.9900   -1.9945 H         1 <0>         0.1012
      5 C4          5.0916   -5.3130   -4.0835 C.ar      1 <0>        -0.0784
      6 C5          4.2690   -5.1005   -5.1740 C.ar      1 <0>        -0.1090
      7 C6          4.7622   -5.2659   -6.4546 C.ar      1 <0>        -0.0857
      8 C7          6.0761   -5.6542   -6.6447 C.ar      1 <0>        -0.0895
      9 C8          6.8974   -5.8719   -5.5531 C.ar      1 <0>        -0.0850
     10 C9          6.4048   -5.7012   -4.2730 C.ar      1 <0>        -0.1003
     11 Br1         6.7492   -5.8882   -8.3962 Br        1 <0>        -0.0459
     12 N1          3.6873   -3.9476   -2.6508 N.am      1 <0>        -0.7261
     13 C10         3.4988   -3.2857   -1.4920 C.2       1 <0>         0.5130
     14 O1          4.0474   -3.6668   -0.4797 O.2       1 <0>        -0.5128
     15 C11         2.6063   -2.0719   -1.4541 C.3       1 <0>        -0.1503
     16 C12         2.5646   -1.5139   -0.0301 C.3       1 <0>         0.2707
     17 H2          3.5803   -1.3173    0.3130 H         1 <0>         0.1194
     18 C13         1.7727   -0.2318   -0.0161 C.2       1 <0>        -0.1576
     19 C14         2.2199    1.0478   -0.0135 C.2       1 <0>        -0.1413
     20 C15         1.3000    2.0794    0.0008 C.2       1 <0>        -0.1552
     21 C16        -0.0221    1.7810    0.0118 C.2       1 <0>        -0.1727
     22 S1          0.0021   -0.0041    0.0020 S.3       1 <0>         0.0389
     23 N2          1.9292   -2.4900    0.8585 N.am      1 <0>        -0.7296
     24 C17         2.2087   -2.4831    2.1769 C.2       1 <0>         0.7158
     25 O2          2.9882   -1.6667    2.6288 O.2       1 <0>        -0.5871
     26 N3          1.6242   -3.3811    2.9944 N.am      1 <0>        -0.8666
     27 H3          4.1910   -6.1435   -0.1844 H         1 <0>         0.0613
     28 H4          2.6913   -5.3414   -0.7097 H         1 <0>         0.0554
     29 H5          2.7388   -7.1119   -0.5331 H         1 <0>         0.0482
     30 H6          2.8715   -6.4517   -2.9196 H         1 <0>         0.0656
     31 H7          4.3712   -7.2538   -2.3943 H         1 <0>         0.0736
     32 H8          3.2420   -4.8012   -5.0254 H         1 <0>         0.1302
     33 H9          4.1207   -5.0955   -7.3066 H         1 <0>         0.1355
     34 H10         7.9232   -6.1755   -5.7010 H         1 <0>         0.1363
     35 H11         7.0458   -5.8714   -3.4206 H         1 <0>         0.1353
     36 H12         3.2485   -3.6428   -3.4604 H         1 <0>         0.3999
     37 H13         1.5995   -2.3514   -1.7645 H         1 <0>         0.1033
     38 H14         2.9974   -1.3122   -2.1308 H         1 <0>         0.1161
     39 H15         3.2792    1.2581   -0.0221 H         1 <0>         0.1343
     40 H16         1.6298    3.1078    0.0028 H         1 <0>         0.1347
     41 H17        -0.8702    2.4497    0.0197 H         1 <0>         0.1853
     42 H18         1.3073   -3.1413    0.4980 H         1 <0>         0.3943
     43 H19         1.0023   -4.0324    2.6339 H         1 <0>         0.3954
     44 H20         1.8253   -3.3761    3.9433 H         1 <0>         0.4154
@<TRIPOS>BOND
     1    1    2 1
     2    1   27 1
     3    1   28 1
     4    1   29 1
     5    2    3 1
     6    2   30 1
     7    2   31 1
     8    3    4 1
     9    3    5 1
    10    3   12 1
    11    5   10 ar
    12    5    6 ar
    13    6    7 ar
    14    6   32 1
    15    7    8 ar
    16    7   33 1
    17    8    9 ar
    18    8   11 1
    19    9   10 ar
    20    9   34 1
    21   10   35 1
    22   12   13 am
    23   12   36 1
    24   13   14 2
    25   13   15 1
    26   15   16 1
    27   15   37 1
    28   15   38 1
    29   16   17 1
    30   16   18 1
    31   16   23 1
    32   18   22 1
    33   18   19 2
    34   19   20 1
    35   19   39 1
    36   20   21 2
    37   20   40 1
    38   21   22 1
    39   21   41 1
    40   23   24 am
    41   23   42 1
    42   24   25 2
    43   24   26 am
    44   26   43 1
    45   26   44 1
@<TRIPOS>MOLECULE
ZINC01943982
   57    58     0     0     0
SMALL
USER_CHARGES

@<TRIPOS>ATOM
      1 C1          3.2736    1.3094    2.2381 C.3       1 <0>        -0.1775
      2 C2          4.0620    0.8413    3.4629 C.3       1 <0>         0.0711
      3 H1          4.0740   -0.2483    3.4927 H         1 <0>         0.1030
      4 C3          5.4754    1.3571    3.3778 C.2       1 <0>         0.5187
      5 O1          5.8804    2.1543    4.1971 O.2       1 <0>        -0.4993
      6 N1          6.2894    0.9324    2.3911 N.am      1 <0>        -0.5738
      7 N2          7.5706    1.3999    2.3139 N.3       1 <0>        -0.5998
      8 O2          3.4423    1.3433    4.6487 O.3       1 <0>        -0.2782
      9 C4          2.3916    0.6390    5.1403 C.ar      1 <0>         0.1619
     10 C5          2.0174   -0.5574    4.5398 C.ar      1 <0>        -0.2221
     11 C6          0.9522   -1.2752    5.0359 C.ar      1 <0>        -0.0119
     12 C7          0.2471   -0.7994    6.1446 C.ar      1 <0>        -0.1775
     13 C8          0.6265    0.4039    6.7455 C.ar      1 <0>        -0.0420
     14 C9          1.6962    1.1131    6.2465 C.ar      1 <0>        -0.1530
     15 C10        -0.8955   -1.5652    6.6792 C.2       1 <0>         0.5656
     16 O3         -1.2245   -2.6118    6.1550 O.2       1 <0>        -0.5151
     17 N3         -1.5743   -1.1046    7.7486 N.am      1 <0>        -0.6738
     18 C11        -2.5986   -1.8731    8.3107 C.ar      1 <0>         0.1386
     19 C12        -3.8892   -1.3652    8.3847 C.ar      1 <0>        -0.0783
     20 C13        -4.8986   -2.1266    8.9404 C.ar      1 <0>        -0.1115
     21 C14        -4.6254   -3.3935    9.4228 C.ar      1 <0>        -0.1147
     22 C15        -3.3414   -3.9020    9.3511 C.ar      1 <0>        -0.1158
     23 C16        -2.3288   -3.1481    8.7910 C.ar      1 <0>        -0.0570
     24 C17        -0.9314   -3.7058    8.7066 C.3       1 <0>        -0.0707
     25 C18        -0.1182   -3.2285    9.9116 C.3       1 <0>        -0.1400
     26 C19        -0.9916   -5.2346    8.7053 C.3       1 <0>        -0.1438
     27 C20        -4.1877    0.0155    7.8597 C.3       1 <0>        -0.0569
     28 C21        -5.3197   -0.0629    6.8333 C.3       1 <0>        -0.1434
     29 C22        -4.6113    0.9211    9.0179 C.3       1 <0>        -0.1444
     30 H2          3.2616    2.3989    2.2084 H         1 <0>         0.0800
     31 H3          3.7462    0.9264    1.3337 H         1 <0>         0.0812
     32 H4          2.2513    0.9363    2.2997 H         1 <0>         0.0799
     33 H5          5.9655    0.2947    1.7359 H         1 <0>         0.4023
     34 H6          8.0698    1.2304    3.1742 H         1 <0>         0.3499
     35 H7          8.0566    0.9948    1.5280 H         1 <0>         0.3618
     36 H8          2.5626   -0.9243    3.6828 H         1 <0>         0.1376
     37 H9          0.6618   -2.2046    4.5685 H         1 <0>         0.1414
     38 H10         0.0841    0.7750    7.6025 H         1 <0>         0.1334
     39 H11         1.9927    2.0411    6.7128 H         1 <0>         0.1422
     40 H12        -1.3523   -0.2401    8.1284 H         1 <0>         0.4063
     41 H13        -5.9022   -1.7321    8.9986 H         1 <0>         0.1245
     42 H14        -5.4164   -3.9869    9.8569 H         1 <0>         0.1237
     43 H15        -3.1312   -4.8914    9.7294 H         1 <0>         0.1281
     44 H16        -0.4570   -3.3601    7.7882 H         1 <0>         0.0946
     45 H17        -0.5926   -3.5742   10.8300 H         1 <0>         0.0554
     46 H18         0.8926   -3.6319    9.8506 H         1 <0>         0.0571
     47 H19        -0.0753   -2.1394    9.9125 H         1 <0>         0.0517
     48 H20        -1.5709   -5.5747    7.8469 H         1 <0>         0.0581
     49 H21         0.0191   -5.6380    8.6444 H         1 <0>         0.0556
     50 H22        -1.4660   -5.5803    9.6238 H         1 <0>         0.0558
     51 H23        -3.2955    0.4249    7.3860 H         1 <0>         0.0750
     52 H24        -6.2120   -0.4722    7.3070 H         1 <0>         0.0583
     53 H25        -5.5356    0.9358    6.4535 H         1 <0>         0.0587
     54 H26        -5.0179   -0.7080    6.0082 H         1 <0>         0.0557
     55 H27        -3.8049    0.9769    9.7491 H         1 <0>         0.0548
     56 H28        -4.8272    1.9197    8.6381 H         1 <0>         0.0596
     57 H29        -5.5036    0.5117    9.4916 H         1 <0>         0.0587
@<TRIPOS>BOND
     1    1    2 1
     2    1   30 1
     3    1   31 1
     4    1   32 1
     5    2    3 1
     6    2    4 1
     7    2    8 1
     8    4    5 2
     9    4    6 am
    10    6    7 1
    11    6   33 1
    12    7   34 1
    13    7   35 1
    14    8    9 1
    15    9   14 ar
    16    9   10 ar
    17   10   11 ar
    18   10   36 1
    19   11   12 ar
    20   11   37 1
    21   12   13 ar
    22   12   15 1
    23   13   14 ar
    24   13   38 1
    25   14   39 1
    26   15   16 2
    27   15   17 am
    28   17   18 1
    29   17   40 1
    30   18   23 ar
    31   18   19 ar
    32   19   20 ar
    33   19   27 1
    34   20   21 ar
    35   20   41 1
    36   21   22 ar
    37   21   42 1
    38   22   23 ar
    39   22   43 1
    40   23   24 1
    41   24   25 1
    42   24   26 1
    43   24   44 1
    44   25   45 1
    45   25   46 1
    46   25   47 1
    47   26   48 1
    48   26   49 1
    49   26   50 1
    50   27   28 1
    51   27   29 1
    52   27   51 1
    53   28   52 1
    54   28   53 1
    55   28   54 1
    56   29   55 1
    57   29   56 1
    58   29   57 1
@<TRIPOS>MOLECULE
ZINC41924034
   47    49     0     0     0
SMALL
USER_CHARGES

@<TRIPOS>ATOM
      1 C1         -0.0107    1.3907    0.0087 C.2       1 <0>        -0.1568
      2 C2          1.1945    2.0675   -0.0001 C.2       1 <0>        -0.1404
      3 C3          2.3480    1.3558   -0.0140 C.2       1 <0>        -0.1605
      4 S1          1.7451   -0.3246   -0.0150 S.3       1 <0>         0.0472
      5 C4         -0.0035    0.0352    0.0031 C.2       1 <0>        -0.1734
      6 C5          3.7703    1.8537   -0.0260 C.3       1 <0>         0.2380
      7 H1          3.7975    2.8839    0.3291 H         1 <0>         0.1163
      8 C6          4.3205    1.7911   -1.4522 C.3       1 <0>        -0.0969
      9 C7          4.3540    0.3287   -1.9420 C.3       1 <0>        -0.1244
     10 C8          5.6508    0.2398   -2.7843 C.3       1 <0>        -0.1250
     11 C9          6.6391    1.1245   -1.9846 C.3       1 <0>        -0.1273
     12 C10         5.7734    2.2971   -1.4793 C.3       1 <0>        -0.1224
     13 N1          4.5894    1.0131    0.8508 N.am      1 <0>        -0.6908
     14 C11         4.6461    1.2723    2.1722 C.2       1 <0>         0.5143
     15 O1          4.0188    2.2020    2.6357 O.2       1 <0>        -0.5050
     16 C12         5.4813    0.4153    3.0661 C.2       1 <0>         0.5098
     17 O2          6.1087   -0.5144    2.6026 O.2       1 <0>        -0.4899
     18 N2          5.5380    0.6744    4.3875 N.am      1 <0>        -0.6441
     19 C13         6.2386   -0.1801    5.2353 C.ar      1 <0>         0.1662
     20 C14         7.4055   -0.7954    4.7915 C.ar      1 <0>        -0.1272
     21 C15         8.1002   -1.6406    5.6271 C.ar      1 <0>        -0.0370
     22 C16         7.6329   -1.8800    6.9222 C.ar      1 <0>        -0.1522
     23 C17         6.4612   -1.2603    7.3650 C.ar      1 <0>        -0.0648
     24 C18         5.7736   -0.4124    6.5263 C.ar      1 <0>        -0.1459
     25 C19         8.3752   -2.7861    7.8205 C.2       1 <0>         0.5642
     26 O3          9.3942   -3.3249    7.4339 O.2       1 <0>        -0.5381
     27 N3          7.9233   -3.0160    9.0693 N.am      1 <0>        -0.8513
     28 H2         -0.9442    1.9337    0.0242 H         1 <0>         0.1347
     29 H3          1.2167    3.1472    0.0037 H         1 <0>         0.1339
     30 H4         -0.8387   -0.6494    0.0086 H         1 <0>         0.1855
     31 H5          3.7026    2.3943   -2.1173 H         1 <0>         0.0972
     32 H6          4.4014   -0.3562   -1.0953 H         1 <0>         0.0652
     33 H7          3.4823    0.1132   -2.5599 H         1 <0>         0.0748
     34 H8          6.0081   -0.7887   -2.8361 H         1 <0>         0.0700
     35 H9          5.4910    0.6451   -3.7834 H         1 <0>         0.0703
     36 H10         7.0555    0.5682   -1.1448 H         1 <0>         0.0666
     37 H11         7.4350    1.4899   -2.6336 H         1 <0>         0.0689
     38 H12         5.8608    3.1454   -2.1582 H         1 <0>         0.0718
     39 H13         6.0865    2.5873   -0.4764 H         1 <0>         0.0675
     40 H14         5.0908    0.2701    0.4803 H         1 <0>         0.4162
     41 H15         5.0910    1.4561    4.7481 H         1 <0>         0.4261
     42 H16         7.7661   -0.6100    3.7906 H         1 <0>         0.1477
     43 H17         9.0052   -2.1184    5.2820 H         1 <0>         0.1432
     44 H18         6.0974   -1.4436    8.3652 H         1 <0>         0.1335
     45 H19         4.8703    0.0701    6.8692 H         1 <0>         0.1370
     46 H20         7.1103   -2.5861    9.3777 H         1 <0>         0.4007
     47 H21         8.4111   -3.6114    9.6596 H         1 <0>         0.4066
@<TRIPOS>BOND
     1    1    5 2
     2    1    2 1
     3    1   28 1
     4    2    3 2
     5    2   29 1
     6    3    4 1
     7    3    6 1
     8    4    5 1
     9    5   30 1
    10    6    7 1
    11    6    8 1
    12    6   13 1
    13    8   12 1
    14    8    9 1
    15    8   31 1
    16    9   10 1
    17    9   32 1
    18    9   33 1
    19   10   11 1
    20   10   34 1
    21   10   35 1
    22   11   12 1
    23   11   36 1
    24   11   37 1
    25   12   38 1
    26   12   39 1
    27   13   14 am
    28   13   40 1
    29   14   15 2
    30   14   16 1
    31   16   17 2
    32   16   18 am
    33   18   19 1
    34   18   41 1
    35   19   24 ar
    36   19   20 ar
    37   20   21 ar
    38   20   42 1
    39   21   22 ar
    40   21   43 1
    41   22   23 ar
    42   22   25 1
    43   23   24 ar
    44   23   44 1
    45   24   45 1
    46   25   26 2
    47   25   27 am
    48   27   46 1
    49   27   47 1
@<TRIPOS>MOLECULE
ZINC56609568
   58    61     0     0     0
SMALL
NO_CHARGES

@<TRIPOS>ATOM
      1 C1         -3.5599   -2.8385    1.8858 C.3       1 <0>        -0.1393
      2 C2         -2.3652   -1.9160    1.6362 C.3       1 <0>        -0.1428
      3 C3         -1.1641   -2.4362    2.3831 C.2       1 <0>         0.5098
      4 O1         -1.2548   -3.4456    3.0494 O.2       1 <0>        -0.5184
      5 N1          0.0108   -1.7799    2.3105 N.am      1 <0>        -0.6753
      6 C4          1.0993   -2.2068    3.0792 C.ar      1 <0>         0.1581
      7 C5          1.9852   -1.2760    3.6076 C.ar      1 <0>        -0.1600
      8 C6          3.0600   -1.6966    4.3665 C.ar      1 <0>        -0.0834
      9 C7          3.2577   -3.0437    4.6028 C.ar      1 <0>        -0.1319
     10 C8          2.3757   -3.9792    4.0774 C.ar      1 <0>         0.1809
     11 C9          1.2918   -3.5595    3.3194 C.ar      1 <0>        -0.1493
     12 N2          2.5769   -5.3432    4.3168 N.am      1 <0>        -0.6857
     13 C10         3.0785   -5.7533    5.4986 C.2       1 <0>         0.7053
     14 O2          3.4346   -4.9351    6.3246 O.2       1 <0>        -0.5707
     15 N3          3.1854   -7.0701    5.7648 N.am      1 <0>        -0.7305
     16 C11         3.7296   -7.5149    7.0468 C.3       1 <0>         0.1744
     17 C12         2.6205   -7.5880    8.0989 C.3       1 <0>        -0.0986
     18 H1          2.1527   -6.5940    8.1757 H         1 <0>         0.0701
     19 C13         3.2299   -7.9420    9.4508 C.3       1 <0>        -0.1080
     20 C14         4.0347   -9.2313    9.4132 C.3       1 <0>        -0.1195
     21 C15         4.9858   -9.3130    8.2299 C.3       1 <0>        -0.1063
     22 C16         4.3251   -8.9184    6.9137 C.3       1 <0>        -0.0943
     23 H2          5.0973   -8.8918    6.1291 H         1 <0>         0.0691
     24 C17         3.2485   -9.9120    6.5059 C.3       1 <0>        -0.0588
     25 N4          2.1007   -9.9228    7.4065 N.4       1 <0>        -0.2924
     26 C18         1.5610   -8.5951    7.6795 C.3       1 <0>        -0.0533
     27 C19         1.0403  -10.7248    6.7817 C.3       1 <0>        -0.1006
     28 C20         0.4078  -11.8365    7.6213 C.3       1 <0>        -0.1920
     29 C21         1.3528  -12.1900    6.4712 C.3       1 <0>        -0.1880
     30 H3         -3.7801   -2.8672    2.9530 H         1 <0>         0.0627
     31 H4         -4.4287   -2.4622    1.3456 H         1 <0>         0.0646
     32 H5         -3.3223   -3.8434    1.5368 H         1 <0>         0.0622
     33 H6         -2.1450   -1.8873    0.5690 H         1 <0>         0.0969
     34 H7         -2.6029   -0.9111    1.9853 H         1 <0>         0.0974
     35 H8          0.1019   -1.0116    1.7254 H         1 <0>         0.4125
     36 H9          1.8336   -0.2225    3.4244 H         1 <0>         0.1258
     37 H10         3.7475   -0.9712    4.7758 H         1 <0>         0.1301
     38 H11         4.0992   -3.3694    5.1963 H         1 <0>         0.1421
     39 H12         0.6018   -4.2847    2.9138 H         1 <0>         0.1405
     40 H13         2.3553   -5.9936    3.6321 H         1 <0>         0.4058
     41 H14         2.9013   -7.7228    5.1059 H         1 <0>         0.3955
     42 H15         4.5025   -6.8197    7.3782 H         1 <0>         0.0894
     43 H16         3.8797   -7.1203    9.7759 H         1 <0>         0.0622
     44 H17         2.4259   -8.0399   10.1904 H         1 <0>         0.0635
     45 H18         4.6481   -9.2682   10.3367 H         1 <0>         0.0563
     46 H19         3.3873  -10.1012    9.4589 H         1 <0>         0.0650
     47 H20         5.8438   -8.6540    8.4105 H         1 <0>         0.0626
     48 H21         5.3683  -10.3374    8.1445 H         1 <0>         0.0658
     49 H22         2.9067   -9.6850    5.4893 H         1 <0>         0.0593
     50 H23         3.6864  -10.9201    6.4805 H         1 <0>         0.0602
     51 H24         0.8117   -8.6768    8.4798 H         1 <0>         0.0562
     52 H25         1.0393   -8.2281    6.7879 H         1 <0>         0.0605
     53 H26         0.3943  -10.1895    6.0858 H         1 <0>         0.1006
     54 H27         0.7784  -11.9727    8.6372 H         1 <0>         0.0904
     55 H28        -0.6548  -12.0327    7.4780 H         1 <0>         0.0848
     56 H29         0.9120  -12.6188    5.5712 H         1 <0>         0.0856
     57 H30         2.3452  -12.5588    6.7304 H         1 <0>         0.0902
     58 H31         2.3366  -10.3888    8.2686 H         1 <0>         0.2430
@<TRIPOS>BOND
     1    1    2 1
     2    1   30 1
     3    1   31 1
     4    1   32 1
     5    2    3 1
     6    2   33 1
     7    2   34 1
     8    3    4 2
     9    3    5 am
    10    5    6 1
    11    5   35 1
    12    6   11 ar
    13    6    7 ar
    14    7    8 ar
    15    7   36 1
    16    8    9 ar
    17    8   37 1
    18    9   10 ar
    19    9   38 1
    20   10   11 ar
    21   10   12 1
    22   11   39 1
    23   12   13 am
    24   12   40 1
    25   13   14 2
    26   13   15 am
    27   15   16 1
    28   15   41 1
    29   16   22 1
    30   16   17 1
    31   16   42 1
    32   17   18 1
    33   17   26 1
    34   17   19 1
    35   19   20 1
    36   19   43 1
    37   19   44 1
    38   20   21 1
    39   20   45 1
    40   20   46 1
    41   21   22 1
    42   21   47 1
    43   21   48 1
    44   22   23 1
    45   22   24 1
    46   24   25 1
    47   24   49 1
    48   24   50 1
    49   25   26 1
    50   25   27 1
    51   25   58 1
    52   26   51 1
    53   26   52 1
    54   27   29 1
    55   27   28 1
    56   27   53 1
    57   28   29 1
    58   28   54 1
    59   28   55 1
    60   29   56 1
    61   29   57 1
@<TRIPOS>MOLECULE
ZINC00062514
   46    49     0     0     0
SMALL
USER_CHARGES
2-amino-5-oxo-4-(4-pyrrolidin-1-ylphenyl)-4,6,7,8-tetrahydrochromene-3-carbonitrile
@<TRIPOS>ATOM
      1 C1         -0.0123    1.0758    0.0244 C.ar      1 <0>        -0.0922
      2 C2         -1.2181    1.7492    0.0338 C.ar      1 <0>        -0.0923
      3 C3         -1.2361    3.1382    0.0307 C.ar      1 <0>         0.0797
      4 C4         -0.0406    3.8451    0.0066 C.ar      1 <0>        -0.1503
      5 C5          1.1615    3.1655   -0.0085 C.ar      1 <0>        -0.0964
      6 C6          1.1759    1.7827    0.0004 C.ar      1 <0>        -0.0739
      7 C7          2.4896    1.0445   -0.0156 C.3       1 <0>         0.0923
      8 H1          2.3012   -0.0291   -0.0095 H         1 <0>         0.0994
      9 C8          3.2850    1.4155    1.2049 C.2       1 <0>        -0.2596
     10 C9          4.3034    2.3051    1.1148 C.2       1 <0>         0.4244
     11 O1          4.6272    2.8812   -0.0532 O.3       1 <0>        -0.2400
     12 C10         4.2662    2.2977   -1.2115 C.2       1 <0>         0.1643
     13 C11         3.2551    1.4115   -1.2640 C.2       1 <0>        -0.2592
     14 C12         2.8801    0.7993   -2.4755 C.2       1 <0>         0.4006
     15 O2          1.9490    0.0192   -2.4866 O.2       1 <0>        -0.4462
     16 C13         3.6125    1.0941   -3.7563 C.3       1 <0>        -0.1606
     17 C14         5.0573    1.4809   -3.4221 C.3       1 <0>        -0.1142
     18 C15         5.0302    2.6704   -2.4605 C.3       1 <0>        -0.0803
     19 N1          5.0188    2.6238    2.2423 N.pl3     1 <0>        -0.8299
     20 C16         2.9648    0.8255    2.4698 C.1       1 <0>         0.2713
     21 N2          2.7108    0.3575    3.4732 N.1       1 <0>        -0.4373
     22 N3         -2.4537    3.8224    0.0465 N.pl3     1 <0>        -0.4838
     23 C17        -2.5910    4.6363    1.2813 C.3       1 <0>         0.0389
     24 C18        -3.6700    5.6806    0.8995 C.3       1 <0>        -0.1240
     25 C19        -3.3391    5.9954   -0.5774 C.3       1 <0>        -0.1320
     26 C20        -2.5388    4.7789   -1.0784 C.3       1 <0>         0.0370
     27 H2          0.0025   -0.0040    0.0313 H         1 <0>         0.1260
     28 H3         -2.1458    1.1965    0.0481 H         1 <0>         0.1291
     29 H4         -0.0512    4.9251    0.0000 H         1 <0>         0.1174
     30 H5          2.0913    3.7145   -0.0276 H         1 <0>         0.1125
     31 H6          3.6043    0.2818   -4.3395 H         1 <0>         0.0917
     32 H7          3.1241    1.9192   -4.2748 H         1 <0>         0.1052
     33 H8          5.5619    0.6386   -2.9488 H         1 <0>         0.0790
     34 H9          5.5824    1.7601   -4.3355 H         1 <0>         0.0962
     35 H10         6.0509    2.9439   -2.1932 H         1 <0>         0.1017
     36 H11         4.5428    3.5168   -2.9442 H         1 <0>         0.1085
     37 H12         5.7496    3.2593    2.1894 H         1 <0>         0.4117
     38 H13         4.7934    2.2134    3.0919 H         1 <0>         0.4266
     39 H14        -2.9303    4.0190    2.1132 H         1 <0>         0.0843
     40 H15        -1.6491    5.1278    1.5248 H         1 <0>         0.0492
     41 H16        -3.5759    6.5752    1.5151 H         1 <0>         0.0735
     42 H17        -4.6700    5.2562    0.9887 H         1 <0>         0.0770
     43 H18        -2.7346    6.8999   -0.6451 H         1 <0>         0.0675
     44 H19        -4.2557    6.1096   -1.1560 H         1 <0>         0.0748
     45 H20        -1.5380    5.0904   -1.3774 H         1 <0>         0.0506
     46 H21        -3.0508    4.3156   -1.9218 H         1 <0>         0.0816
@<TRIPOS>BOND
     1    1    6 ar
     2    1    2 ar
     3    1   27 1
     4    2    3 ar
     5    2   28 1
     6    3    4 ar
     7    3   22 1
     8    4    5 ar
     9    4   29 1
    10    5    6 ar
    11    5   30 1
    12    6    7 1
    13    7    8 1
    14    7   13 1
    15    7    9 1
    16    9   10 2
    17    9   20 1
    18   10   11 1
    19   10   19 1
    20   11   12 1
    21   12   18 1
    22   12   13 2
    23   13   14 1
    24   14   15 2
    25   14   16 1
    26   16   17 1
    27   16   31 1
    28   16   32 1
    29   17   18 1
    30   17   33 1
    31   17   34 1
    32   18   35 1
    33   18   36 1
    34   19   37 1
    35   19   38 1
    36   20   21 3
    37   22   26 1
    38   22   23 1
    39   23   24 1
    40   23   39 1
    41   23   40 1
    42   24   25 1
    43   24   41 1
    44   24   42 1
    45   25   26 1
    46   25   43 1
    47   25   44 1
    48   26   45 1
    49   26   46 1
@<TRIPOS>MOLECULE
ZINC20132937
   38    41     0     0     0
SMALL
USER_CHARGES
9-hydroxy-2-(2-methoxyphenyl)-3,5-dihydrochromeno[3,2-e]pyrimidine-4-thione
@<TRIPOS>ATOM
      1 C1         -4.7263    5.6554    3.4460 C.3       1 <0>         0.0142
      2 O1         -3.7909    4.5751    3.4443 O.3       1 <0>        -0.2680
      3 C2         -3.5374    3.9779    4.6361 C.ar      1 <0>         0.2023
      4 C3         -4.1779    4.4164    5.7851 C.ar      1 <0>        -0.2176
      5 C4         -3.9146    3.8115    6.9983 C.ar      1 <0>        -0.0356
      6 C5         -3.0154    2.7607    7.0769 C.ar      1 <0>        -0.1578
      7 C6         -2.3737    2.3085    5.9441 C.ar      1 <0>        -0.0450
      8 C7         -2.6309    2.9116    4.7104 C.ar      1 <0>        -0.1277
      9 C8         -1.9477    2.4327    3.4940 C.2       1 <0>         0.4674
     10 N1         -1.0647    1.3967    3.5875 N.pl3     1 <0>        -0.5809
     11 H1         -0.8683    0.9278    4.5630 H         1 <0>         0.4620
     12 C9         -0.4335    0.9490    2.4820 C.2       1 <0>         0.3412
     13 S1          0.6771   -0.3503    2.5791 S.2       1 <0>        -0.5950
     14 C10        -0.7078    1.5663    1.2504 C.2       1 <0>        -0.2542
     15 C11        -1.6050    2.6101    1.2108 C.2       1 <0>         0.4058
     16 N2         -2.2026    3.0129    2.3413 N.2       1 <0>        -0.4859
     17 O2         -1.8939    3.2338    0.0502 O.3       1 <0>        -0.2026
     18 C12        -1.6342    2.6267   -1.1335 C.ar      1 <0>         0.0513
     19 C13        -0.7325    1.5804   -1.2176 C.ar      1 <0>        -0.0887
     20 C14        -0.4848    0.9784   -2.4395 C.ar      1 <0>        -0.1286
     21 C15        -1.1318    1.4186   -3.5783 C.ar      1 <0>        -0.0805
     22 C16        -2.0353    2.4620   -3.5015 C.ar      1 <0>        -0.1934
     23 C17        -2.2896    3.0677   -2.2827 C.ar      1 <0>         0.1666
     24 O3         -3.1789    4.0936   -2.2063 O.3       1 <0>        -0.4964
     25 C18        -0.0127    1.0858    0.0080 C.3       1 <0>        -0.0112
     26 H2         -4.8379    6.0454    2.4235 H         1 <0>         0.1088
     27 H3         -4.3607    6.4559    4.1059 H         1 <0>         0.0602
     28 H4         -5.7003    5.2964    3.8099 H         1 <0>         0.0600
     29 H5         -4.8803    5.2351    5.7318 H         1 <0>         0.1426
     30 H6         -4.4125    4.1599    7.8911 H         1 <0>         0.1377
     31 H7         -2.8160    2.2939    8.0302 H         1 <0>         0.1399
     32 H8         -1.6734    1.4890    6.0100 H         1 <0>         0.1334
     33 H9          0.2194    0.1621   -2.5033 H         1 <0>         0.1384
     34 H10        -0.9326    0.9461   -4.5289 H         1 <0>         0.1359
     35 H11        -2.5426    2.8042   -4.3914 H         1 <0>         0.1418
     36 H12        -3.6961    4.4418   -3.1125 H         1 <0>         0.4379
     37 H13         1.0198    1.4650   -0.0044 H         1 <0>         0.1045
     38 H14         0.0005   -0.0141   -0.0027 H         1 <0>         0.1174
@<TRIPOS>BOND
     1    1    2 1
     2    1   26 1
     3    1   27 1
     4    1   28 1
     5    2    3 1
     6    3    8 ar
     7    3    4 ar
     8    4    5 ar
     9    4   29 1
    10    5    6 ar
    11    5   30 1
    12    6    7 ar
    13    6   31 1
    14    7    8 ar
    15    7   32 1
    16    8    9 1
    17    9   16 2
    18    9   10 1
    19   10   11 1
    20   10   12 1
    21   12   13 2
    22   12   14 1
    23   14   25 1
    24   14   15 2
    25   15   16 1
    26   15   17 1
    27   17   18 1
    28   18   23 ar
    29   18   19 ar
    30   19   20 ar
    31   19   25 1
    32   20   21 ar
    33   20   33 1
    34   21   22 ar
    35   21   34 1
    36   22   23 ar
    37   22   35 1
    38   23   24 1
    39   24   36 1
    40   25   37 1
    41   25   38 1
@<TRIPOS>MOLECULE
ZINC39324957
   46    48     0     0     0
SMALL
USER_CHARGES

@<TRIPOS>ATOM
      1 C1          0.0650    2.0459    0.1048 C.3       1 <0>        -0.1551
      2 C2          0.1068    0.5396   -0.1598 C.3       1 <0>        -0.0890
      3 H1          0.6462    0.3444   -1.0867 H         1 <0>         0.0780
      4 C3         -1.3239   -0.0062   -0.2692 C.3       1 <0>        -0.0879
      5 C4         -2.0376    0.3212    1.0173 C.2       1 <0>        -0.1260
      6 C5         -1.3862    0.3561    2.1630 C.2       1 <0>        -0.0608
      7 C6          0.0710    0.0304    2.3056 C.3       1 <0>        -0.0336
      8 H2          0.1397   -0.9094    2.8534 H         1 <0>         0.0831
      9 C7          0.8047   -0.1674    1.0003 C.3       1 <0>        -0.1082
     10 C8          0.7207    1.1078    3.1753 C.3       1 <0>        -0.0196
     11 H3          0.5483    2.0883    2.7314 H         1 <0>         0.1233
     12 C9          0.0963    1.0602    4.5704 C.3       1 <0>         0.2098
     13 C10        -1.4011    1.0754    4.5092 C.2       1 <0>         0.2391
     14 C11        -2.1114    0.7398    3.4027 C.2       1 <0>        -0.1251
     15 C12        -3.5431    0.7556    3.4288 C.1       1 <0>         0.2623
     16 N1         -4.6788    0.7680    3.4495 N.1       1 <0>        -0.4241
     17 N2         -2.0893    1.4480    5.6296 N.pl3     1 <0>        -0.8415
     18 C13         0.5363   -0.1684    5.2514 C.1       1 <0>         0.2008
     19 N3          0.8758   -1.1166    5.7769 N.1       1 <0>        -0.3540
     20 C14         0.5570    2.2258    5.3424 C.1       1 <0>         0.1958
     21 N4          0.9124    3.1254    5.9381 N.1       1 <0>        -0.3536
     22 C15         2.2025    0.8516    3.2736 C.ar      1 <0>        -0.1390
     23 C16         2.6674   -0.4297    3.5059 C.ar      1 <0>        -0.0679
     24 C17         4.0252   -0.6671    3.5969 C.ar      1 <0>        -0.1449
     25 C18         4.9226    0.3813    3.4545 C.ar      1 <0>         0.1389
     26 C19         4.4536    1.6659    3.2211 C.ar      1 <0>        -0.2055
     27 C20         3.0950    1.8972    3.1257 C.ar      1 <0>        -0.0590
     28 O1          6.2588    0.1503    3.5441 O.3       1 <0>        -0.3151
     29 C21         7.1238    1.2769    3.3873 C.3       1 <0>         0.0253
     30 H4          1.0822    2.4280    0.1913 H         1 <0>         0.0545
     31 H5         -0.4420    2.5459   -0.7205 H         1 <0>         0.0545
     32 H6         -0.4749    2.2371    1.0322 H         1 <0>         0.0639
     33 H7         -1.8367    0.4663   -1.1070 H         1 <0>         0.0756
     34 H8         -1.2975   -1.0864   -0.4127 H         1 <0>         0.0803
     35 H9         -3.0971    0.5304    1.0003 H         1 <0>         0.1103
     36 H10         0.8607   -1.2341    0.7831 H         1 <0>         0.0724
     37 H11         1.8164    0.2263    1.0982 H         1 <0>         0.0815
     38 H12        -1.6079    1.6932    6.4353 H         1 <0>         0.4049
     39 H13        -3.0590    1.4672    5.6192 H         1 <0>         0.4135
     40 H14         1.9684   -1.2455    3.6167 H         1 <0>         0.1297
     41 H15         4.3878   -1.6680    3.7791 H         1 <0>         0.1342
     42 H16         5.1502    2.4837    3.1099 H         1 <0>         0.1320
     43 H17         2.7295    2.8963    2.9396 H         1 <0>         0.1287
     44 H18         8.1609    0.9546    3.4809 H         1 <0>         0.1025
     45 H19         6.9685    1.7202    2.4037 H         1 <0>         0.0582
     46 H20         6.9020    2.0154    4.1578 H         1 <0>         0.0568
@<TRIPOS>BOND
     1    1    2 1
     2    1   30 1
     3    1   31 1
     4    1   32 1
     5    2    3 1
     6    2    9 1
     7    2    4 1
     8    4    5 1
     9    4   33 1
    10    4   34 1
    11    5    6 2
    12    5   35 1
    13    6   14 1
    14    6    7 1
    15    7    8 1
    16    7    9 1
    17    7   10 1
    18    9   36 1
    19    9   37 1
    20   10   11 1
    21   10   12 1
    22   10   22 1
    23   12   13 1
    24   12   18 1
    25   12   20 1
    26   13   14 2
    27   13   17 1
    28   14   15 1
    29   15   16 3
    30   17   38 1
    31   17   39 1
    32   18   19 3
    33   20   21 3
    34   22   27 ar
    35   22   23 ar
    36   23   24 ar
    37   23   40 1
    38   24   25 ar
    39   24   41 1
    40   25   26 ar
    41   25   28 1
    42   26   27 ar
    43   26   42 1
    44   27   43 1
    45   28   29 1
    46   29   44 1
    47   29   45 1
    48   29   46 1
@<TRIPOS>MOLECULE
ZINC44023237
   40    42     0     0     0
SMALL
USER_CHARGES

@<TRIPOS>ATOM
      1 C1          1.8725    1.3928   -3.2200 C.ar      1 <0>        -0.1573
      2 C2          2.4104    2.0987   -2.1592 C.ar      1 <0>        -0.0779
      3 C3          2.9916    1.4241   -1.1017 C.ar      1 <0>         0.0440
      4 C4          3.0352    0.0336   -1.1052 C.ar      1 <0>         0.1803
      5 C5          2.4948   -0.6720   -2.1709 C.ar      1 <0>        -0.1965
      6 C6          1.9144    0.0090   -3.2265 C.ar      1 <0>         0.1419
      7 F1          1.3876   -0.6772   -4.2643 F         1 <0>        -0.1256
      8 N1          3.6233   -0.6521   -0.0364 N.pl3     1 <0>        -0.6742
      9 C7          3.5605   -2.0220    0.0178 C.2       1 <0>         0.4327
     10 C8          4.7072   -2.7627    0.0918 C.2       1 <0>        -0.2992
     11 C9          4.6126   -4.1623    0.1465 C.2       1 <0>         0.5548
     12 O1          5.6218   -4.8431    0.2133 O.2       1 <0>        -0.5090
     13 N2          3.3995   -4.7487    0.1253 N.am      1 <0>        -0.5499
     14 C10         2.2809   -4.0048    0.0517 C.2       1 <0>         0.7059
     15 O2          1.1964   -4.5542    0.0338 O.2       1 <0>        -0.5223
     16 N3          2.3441   -2.6614    0.0039 N.am      1 <0>        -0.6503
     17 H1          1.5265   -2.1416   -0.0447 H         1 <0>         0.4328
     18 C11         3.2978   -6.2091    0.1822 C.3       1 <0>         0.1416
     19 C12         2.5904   -6.7205   -1.0743 C.3       1 <0>        -0.1355
     20 C13         2.4842   -8.2456   -1.0148 C.3       1 <0>        -0.1136
     21 C14         1.6829   -8.6532    0.2232 C.3       1 <0>        -0.1225
     22 C15         2.3903   -8.1418    1.4797 C.3       1 <0>        -0.1136
     23 C16         2.4965   -6.6166    1.4202 C.3       1 <0>        -0.1351
     24 F2          3.5171    2.1145   -0.0662 F         1 <0>        -0.1302
     25 H2          1.4150    1.9220   -4.0428 H         1 <0>         0.1516
     26 H3          2.3766    3.1782   -2.1571 H         1 <0>         0.1553
     27 H4          2.5274   -1.7515   -2.1766 H         1 <0>         0.1439
     28 H5          4.0754   -0.1591    0.6662 H         1 <0>         0.4360
     29 H6          5.6722   -2.2780    0.1076 H         1 <0>         0.1754
     30 H7          4.2971   -6.6410    0.2378 H         1 <0>         0.1158
     31 H8          1.5912   -6.2886   -1.1299 H         1 <0>         0.0881
     32 H9          3.1613   -6.4301   -1.9563 H         1 <0>         0.0632
     33 H10         1.9803   -8.6100   -1.9100 H         1 <0>         0.0689
     34 H11         3.4835   -8.6775   -0.9592 H         1 <0>         0.0648
     35 H12         0.6836   -8.2213    0.1676 H         1 <0>         0.0659
     36 H13         1.6073   -9.7397    0.2656 H         1 <0>         0.0654
     37 H14         1.8194   -8.4321    2.3617 H         1 <0>         0.0688
     38 H15         3.3896   -8.5737    1.5353 H         1 <0>         0.0648
     39 H16         3.0005   -6.2523    2.3154 H         1 <0>         0.0630
     40 H17         1.4972   -6.1848    1.3646 H         1 <0>         0.0879
@<TRIPOS>BOND
     1    1    6 ar
     2    1    2 ar
     3    1   25 1
     4    2    3 ar
     5    2   26 1
     6    3    4 ar
     7    3   24 1
     8    4    5 ar
     9    4    8 1
    10    5    6 ar
    11    5   27 1
    12    6    7 1
    13    8    9 1
    14    8   28 1
    15    9   16 1
    16    9   10 2
    17   10   11 1
    18   10   29 1
    19   11   12 2
    20   11   13 am
    21   13   14 am
    22   13   18 1
    23   14   15 2
    24   14   16 am
    25   16   17 1
    26   18   23 1
    27   18   19 1
    28   18   30 1
    29   19   20 1
    30   19   31 1
    31   19   32 1
    32   20   21 1
    33   20   33 1
    34   20   34 1
    35   21   22 1
    36   21   35 1
    37   21   36 1
    38   22   23 1
    39   22   37 1
    40   22   38 1
    41   23   39 1
    42   23   40 1
@<TRIPOS>MOLECULE
ZINC63161469
   47    49     0     0     0
SMALL
USER_CHARGES

@<TRIPOS>ATOM
      1 C1          0.1536    0.8704    1.1596 C.2       1 <0>        -0.0120
      2 C2          1.3368    1.6228    1.1516 C.2       1 <0>        -0.2825
      3 C3          2.1783    1.5497    0.0952 C.2       1 <0>         0.2026
      4 N1          1.8936    0.7520   -0.9683 N.am      1 <0>        -0.5969
      5 H1          2.5096    0.7128   -1.7166 H         1 <0>         0.4281
      6 C4          0.7667    0.0151   -0.9947 C.2       1 <0>         0.5228
      7 O1          0.5249   -0.6972   -1.9560 O.2       1 <0>        -0.5041
      8 C5         -0.1347    0.0671    0.0906 C.2       1 <0>         0.0630
      9 N2         -1.3108   -0.6960    0.0733 N.am      1 <0>        -0.6748
     10 C6         -1.2428   -2.0360   -0.0539 C.2       1 <0>         0.7316
     11 O2         -0.1614   -2.5919   -0.0616 O.2       1 <0>        -0.5613
     12 N3         -2.3735   -2.7599   -0.1727 N.am      1 <0>        -0.6259
     13 C7         -3.7366   -2.2110   -0.2909 C.3       1 <0>         0.0949
     14 C8         -4.5505   -3.3204   -1.0026 C.3       1 <0>        -0.1314
     15 C9         -3.9383   -4.6034   -0.3808 C.3       1 <0>        -0.1323
     16 C10        -2.4511   -4.2275   -0.2123 C.3       1 <0>         0.1622
     17 C11        -1.9143   -4.8125    1.0956 C.3       1 <0>        -0.0988
     18 C12        -2.0476   -6.3363    1.0653 C.3       1 <0>        -0.1112
     19 C13        -1.5109   -6.9213    2.3732 C.3       1 <0>        -0.1193
     20 C14        -2.3140   -6.3623    3.5494 C.3       1 <0>        -0.1188
     21 C15        -2.1807   -4.8385    3.5797 C.3       1 <0>        -0.1198
     22 C16        -2.7175   -4.2535    2.2718 C.3       1 <0>        -0.1077
     23 C17         1.6708    2.5136    2.3203 C.3       1 <0>         0.5304
     24 F1          2.8904    3.1565    2.0830 F         1 <0>        -0.1772
     25 F2          0.6627    3.4704    2.4804 F         1 <0>        -0.1729
     26 F3          1.7692    1.7410    3.4824 F         1 <0>        -0.1716
     27 H2         -0.5202    0.9211    2.0022 H         1 <0>         0.1484
     28 H3          3.0875    2.1326    0.0964 H         1 <0>         0.1847
     29 H4         -2.1734   -0.2595    0.1529 H         1 <0>         0.4075
     30 H5         -4.1517   -2.0104    0.6968 H         1 <0>         0.0697
     31 H6         -3.7287   -1.3017   -0.8918 H         1 <0>         0.0722
     32 H7         -5.6114   -3.2395   -0.7659 H         1 <0>         0.0857
     33 H8         -4.3891   -3.2931   -2.0802 H         1 <0>         0.0774
     34 H9         -4.3965   -4.8209    0.5840 H         1 <0>         0.0857
     35 H10        -4.0453   -5.4497   -1.0594 H         1 <0>         0.0836
     36 H11        -1.8732   -4.6067   -1.0552 H         1 <0>         0.0761
     37 H12        -0.8648   -4.5418    1.2109 H         1 <0>         0.0835
     38 H13        -3.0972   -6.6070    0.9500 H         1 <0>         0.0643
     39 H14        -1.4755   -6.7346    0.2274 H         1 <0>         0.0623
     40 H15        -1.6058   -8.0069    2.3517 H         1 <0>         0.0618
     41 H16        -0.4613   -6.6506    2.4886 H         1 <0>         0.0611
     42 H17        -3.3635   -6.6330    3.4341 H         1 <0>         0.0606
     43 H18        -1.9316   -6.7791    4.4812 H         1 <0>         0.0597
     44 H19        -2.7528   -4.4402    4.4176 H         1 <0>         0.0593
     45 H20        -1.1312   -4.5678    3.6950 H         1 <0>         0.0597
     46 H21        -2.6225   -3.1679    2.2933 H         1 <0>         0.0562
     47 H22        -3.7670   -4.5242    2.1564 H         1 <0>         0.0631
@<TRIPOS>BOND
     1    1    8 2
     2    1    2 1
     3    1   27 1
     4    2    3 2
     5    2   23 1
     6    3    4 1
     7    3   28 1
     8    4    5 1
     9    4    6 am
    10    6    7 2
    11    6    8 1
    12    8    9 1
    13    9   10 am
    14    9   29 1
    15   10   11 2
    16   10   12 am
    17   12   16 1
    18   12   13 1
    19   13   14 1
    20   13   30 1
    21   13   31 1
    22   14   15 1
    23   14   32 1
    24   14   33 1
    25   15   16 1
    26   15   34 1
    27   15   35 1
    28   16   17 1
    29   16   36 1
    30   17   22 1
    31   17   18 1
    32   17   37 1
    33   18   19 1
    34   18   38 1
    35   18   39 1
    36   19   20 1
    37   19   40 1
    38   19   41 1
    39   20   21 1
    40   20   42 1
    41   20   43 1
    42   21   22 1
    43   21   44 1
    44   21   45 1
    45   22   46 1
    46   22   47 1
    47   23   24 1
    48   23   25 1
    49   23   26 1
@<TRIPOS>MOLECULE
ZINC67630422
   50    52     0     0     0
SMALL
USER_CHARGES

@<TRIPOS>ATOM
      1 C1         -0.0186    1.5070   -0.0006 C.3       1 <0>        -0.1486
      2 C2          0.0054   -0.0228   -0.0007 C.3       1 <0>        -0.0976
      3 H1         -1.0164   -0.4022    0.0078 H         1 <0>         0.0848
      4 C3          0.7241   -0.5215   -1.2559 C.3       1 <0>        -0.1184
      5 C4          0.7481   -2.0513   -1.2561 C.3       1 <0>        -0.1197
      6 C5          1.4875   -2.5499   -0.0129 C.3       1 <0>        -0.1187
      7 C6          0.7688   -2.0512    1.2423 C.3       1 <0>        -0.1307
      8 C7          0.7449   -0.5214    1.2424 C.3       1 <0>         0.1473
      9 H2          0.2328   -0.1661    2.1367 H         1 <0>         0.0886
     10 N1          2.1182   -0.0115    1.2310 N.am      1 <0>        -0.7088
     11 C8          2.7950    0.1277    2.3882 C.2       1 <0>         0.5778
     12 O1          2.2363   -0.0805    3.4484 O.2       1 <0>        -0.5443
     13 C9          4.2102    0.5318    2.3690 C.2       1 <0>        -0.2744
     14 C10         4.9571    0.5681    3.5383 C.2       1 <0>         0.0920
     15 C11         6.3112    0.9603    3.4702 C.2       1 <0>        -0.2821
     16 C12         6.8891    1.2974    2.2579 C.2       1 <0>         0.2617
     17 N2          6.1626    1.2679    1.1223 N.am      1 <0>        -0.5937
     18 H3          6.5869    1.5149    0.2857 H         1 <0>         0.4232
     19 C13         4.8706    0.9008    1.1143 C.2       1 <0>         0.5396
     20 O2          4.2485    0.8791    0.0674 O.2       1 <0>        -0.5237
     21 C14         8.3389    1.6981    2.1634 C.3       1 <0>        -0.1000
     22 C15         8.8580    2.2236    3.4982 C.3       1 <0>        -0.0517
     23 C16         8.6025    1.1743    4.5886 C.3       1 <0>        -0.1579
     24 C17         7.1024    1.0109    4.7116 C.2       1 <0>         0.4161
     25 O3          6.5691    0.9248    5.7978 O.2       1 <0>        -0.4440
     26 C18         8.1282    3.5200    3.8556 C.3       1 <0>        -0.1585
     27 C19        10.3601    2.4943    3.3915 C.3       1 <0>        -0.1430
     28 H4          1.0032    1.8864   -0.0091 H         1 <0>         0.0560
     29 H5         -0.5454    1.8622   -0.8863 H         1 <0>         0.0570
     30 H6         -0.5306    1.8623    0.8936 H         1 <0>         0.0559
     31 H7          0.1973   -0.1663   -2.1416 H         1 <0>         0.0656
     32 H8          1.7459   -0.1421   -1.2644 H         1 <0>         0.0645
     33 H9         -0.2737   -2.4307   -1.2476 H         1 <0>         0.0631
     34 H10         1.2601   -2.4066   -2.1503 H         1 <0>         0.0617
     35 H11         1.5046   -3.6398   -0.0130 H         1 <0>         0.0610
     36 H12         2.5094   -2.1705   -0.0214 H         1 <0>         0.0605
     37 H13        -0.2530   -2.4306    1.2508 H         1 <0>         0.0724
     38 H14         1.2956   -2.4064    2.1280 H         1 <0>         0.0667
     39 H15         2.5404    0.2259    0.3906 H         1 <0>         0.4137
     40 H16         4.5096    0.3011    4.4842 H         1 <0>         0.1614
     41 H17         8.9299    0.8314    1.8670 H         1 <0>         0.1160
     42 H18         8.4454    2.4764    1.4078 H         1 <0>         0.1042
     43 H19         9.0570    0.2253    4.3040 H         1 <0>         0.1084
     44 H20         9.0175    1.5159    5.5368 H         1 <0>         0.1051
     45 H21         7.0586    3.3252    3.9333 H         1 <0>         0.0582
     46 H22         8.4996    3.8949    4.8093 H         1 <0>         0.0698
     47 H23         8.3067    4.2634    3.0786 H         1 <0>         0.0662
     48 H24        10.5411    3.2365    2.6140 H         1 <0>         0.0647
     49 H25        10.7302    2.8697    4.3455 H         1 <0>         0.0686
     50 H26        10.8789    1.5696    3.1389 H         1 <0>         0.0640
@<TRIPOS>BOND
     1    1    2 1
     2    1   28 1
     3    1   29 1
     4    1   30 1
     5    2    3 1
     6    2    8 1
     7    2    4 1
     8    4    5 1
     9    4   31 1
    10    4   32 1
    11    5    6 1
    12    5   33 1
    13    5   34 1
    14    6    7 1
    15    6   35 1
    16    6   36 1
    17    7    8 1
    18    7   37 1
    19    7   38 1
    20    8    9 1
    21    8   10 1
    22   10   11 am
    23   10   39 1
    24   11   12 2
    25   11   13 1
    26   13   19 1
    27   13   14 2
    28   14   15 1
    29   14   40 1
    30   15   24 1
    31   15   16 2
    32   16   17 1
    33   16   21 1
    34   17   18 1
    35   17   19 am
    36   19   20 2
    37   21   22 1
    38   21   41 1
    39   21   42 1
    40   22   23 1
    41   22   26 1
    42   22   27 1
    43   23   24 1
    44   23   43 1
    45   23   44 1
    46   24   25 2
    47   26   45 1
    48   26   46 1
    49   26   47 1
    50   27   48 1
    51   27   49 1
    52   27   50 1
@<TRIPOS>MOLECULE
ZINC20690163
   46    49     0     0     0
SMALL
USER_CHARGES
5-[(3aR,4S,9bR)-6-methyl-9-nitro-3a,4,5,9b-tetrahydro-3H-cyclopenta[c]quinolin-4-yl]-2-methoxy-phenol
@<TRIPOS>ATOM
      1 C1         -4.6286    3.4149    0.1018 C.3       1 <0>        -0.1176
      2 C2         -3.2069    2.9201    0.1711 C.ar      1 <0>        -0.1277
      3 C3         -2.9559    1.5660    0.1454 C.ar      1 <0>        -0.0714
      4 C4         -1.6562    1.0973    0.2006 C.ar      1 <0>        -0.1201
      5 C5         -0.6090    1.9956    0.2856 C.ar      1 <0>         0.0119
      6 C6         -0.8513    3.3524    0.3105 C.ar      1 <0>        -0.0928
      7 C7         -2.1604    3.8398    0.2601 C.ar      1 <0>         0.2312
      8 N1         -2.4929    5.1919    0.3054 N.pl3     1 <0>        -0.7334
      9 C8         -1.3746    6.1487    0.3119 C.3       1 <0>         0.1880
     10 H1         -1.7238    7.1194    0.6937 H         1 <0>         0.1042
     11 C9         -0.2894    5.5577    1.1875 C.3       1 <0>        -0.0888
     12 H2         -0.7778    5.4761    2.1697 H         1 <0>         0.1061
     13 C10         0.2502    4.3380    0.3770 C.3       1 <0>        -0.0280
     14 H3          0.5126    4.3831   -0.6903 H         1 <0>         0.1210
     15 C11         1.5461    4.0445    1.0372 C.2       1 <0>        -0.1791
     16 C12         2.0218    5.1720    1.5546 C.2       1 <0>        -0.1618
     17 C13         1.0370    6.3168    1.3034 C.3       1 <0>        -0.0874
     18 C14        -0.8549    6.3440   -1.0891 C.ar      1 <0>        -0.0977
     19 C15        -0.1603    7.4946   -1.4131 C.ar      1 <0>        -0.1151
     20 C16         0.3233    7.6758   -2.6954 C.ar      1 <0>        -0.1671
     21 C17         0.1025    6.7082   -3.6623 C.ar      1 <0>         0.0919
     22 C18        -0.6016    5.5526   -3.3377 C.ar      1 <0>         0.1326
     23 C19        -1.0787    5.3746   -2.0491 C.ar      1 <0>        -0.1682
     24 O1         -0.8205    4.5998   -4.2831 O.3       1 <0>        -0.4971
     25 O2          0.5731    6.8872   -4.9256 O.3       1 <0>        -0.3066
     26 C20         1.2869    8.0974   -5.1865 C.3       1 <0>         0.0224
     27 N2          0.7833    1.4971    0.3441 N.pl3     1 <0>         0.0232
     28 O3          1.6254    1.9525   -0.4089 O.2       1 <0>        -0.1431
     29 O4          1.0881    0.6349    1.1486 O.3       1 <0>        -0.1535
     30 H4         -5.3129    2.5562    0.0360 H         1 <0>         0.0759
     31 H5         -4.7524    4.0514   -0.7868 H         1 <0>         0.0735
     32 H6         -4.8582    3.9983    1.0056 H         1 <0>         0.0730
     33 H7         -3.7771    0.8679    0.0777 H         1 <0>         0.1431
     34 H8         -1.4606    0.0353    0.1813 H         1 <0>         0.1412
     35 H9         -3.5299    5.5577    0.3355 H         1 <0>         0.4411
     36 H10         2.1124    3.1077    1.1456 H         1 <0>         0.1377
     37 H11         2.9939    5.1738    2.0693 H         1 <0>         0.1351
     38 H12         1.2312    6.8606    0.3672 H         1 <0>         0.0902
     39 H13         0.9787    7.0318    2.1373 H         1 <0>         0.0754
     40 H14         0.0087    8.2515   -0.6615 H         1 <0>         0.1282
     41 H15         0.8695    8.5736   -2.9447 H         1 <0>         0.1359
     42 H16        -1.6251    4.4785   -1.7945 H         1 <0>         0.1309
     43 H17        -1.3772    3.6868   -4.0252 H         1 <0>         0.4288
     44 H18         1.6089    8.1137   -6.2382 H         1 <0>         0.1025
     45 H19         2.1693    8.1510   -4.5319 H         1 <0>         0.0563
     46 H20         0.6319    8.9590   -4.9902 H         1 <0>         0.0552
@<TRIPOS>BOND
     1    1    2 1
     2    1   30 1
     3    1   31 1
     4    1   32 1
     5    2    7 ar
     6    2    3 ar
     7    3    4 ar
     8    3   33 1
     9    4    5 ar
    10    4   34 1
    11    5    6 ar
    12    5   27 1
    13    6   13 1
    14    6    7 ar
    15    7    8 1
    16    8    9 1
    17    8   35 1
    18    9   10 1
    19    9   11 1
    20    9   18 1
    21   11   12 1
    22   11   17 1
    23   11   13 1
    24   13   14 1
    25   13   15 1
    26   15   16 2
    27   15   36 1
    28   16   17 1
    29   16   37 1
    30   17   38 1
    31   17   39 1
    32   18   23 ar
    33   18   19 ar
    34   19   20 ar
    35   19   40 1
    36   20   21 ar
    37   20   41 1
    38   21   22 ar
    39   21   25 1
    40   22   23 ar
    41   22   24 1
    42   23   42 1
    43   24   43 1
    44   25   26 1
    45   26   44 1
    46   26   45 1
    47   26   46 1
    48   27   28 2
    49   27   29 1
@<TRIPOS>MOLECULE
ZINC04816191
   47    48     0     0     0
SMALL
USER_CHARGES

@<TRIPOS>ATOM
      1 C1         -0.7114    1.9262    0.1276 C.3       1 <0>        -0.1762
      2 C2         -0.3565    0.4380    0.1352 C.3       1 <0>        -0.0872
      3 H1          0.2039    0.1933   -0.7672 H         1 <0>         0.1019
      4 C3         -1.6403   -0.3924    0.1793 C.3       1 <0>        -0.1191
      5 C4         -2.4759    0.0089    1.3961 C.3       1 <0>        -0.1234
      6 C5         -1.7025   -0.3229    2.6766 C.3       1 <0>        -0.1226
      7 H2         -2.2490    0.0520    3.5419 H         1 <0>         0.1007
      8 C6         -0.3459    0.3425    2.6051 C.2       1 <0>         0.3649
      9 O1          0.0541    1.0322    3.5122 O.2       1 <0>        -0.4307
     10 C7          0.4969    0.1224    1.3681 C.3       1 <0>        -0.1301
     11 H3          0.8261   -0.9160    1.3294 H         1 <0>         0.1418
     12 C8          1.7130    1.0502    1.4025 C.3       1 <0>         0.0981
     13 C9          2.4547    0.9931    0.0869 C.2       1 <0>         0.2623
     14 C10         3.5591    0.2206    0.2033 C.2       1 <0>        -0.3430
     15 C11         3.6744   -0.3216    1.6093 C.3       1 <0>        -0.0368
     16 C12         2.7315    0.5617    2.4566 C.3       1 <0>         0.1676
     17 C13         3.4623    1.6954    3.0461 C.1       1 <0>         0.2022
     18 N1          4.0262    2.5703    3.5010 N.1       1 <0>        -0.3568
     19 C14         2.0658   -0.2326    3.5019 C.1       1 <0>         0.2069
     20 N2          1.5520   -0.8456    4.3086 N.1       1 <0>        -0.3535
     21 C15         4.4675   -0.0394   -0.8324 C.2       1 <0>         0.3936
     22 O2          5.4335   -0.7485   -0.6297 O.2       1 <0>        -0.4737
     23 N3          2.0664    1.6293   -1.0538 N.pl3     1 <0>        -0.8195
     24 C16         1.2943    2.4303    1.6967 C.1       1 <0>         0.1947
     25 N4          0.9712    3.4955    1.9238 N.1       1 <0>        -0.3658
     26 C17        -1.5303   -1.8386    2.7948 C.3       1 <0>        -0.0841
     27 C18        -0.9330   -2.1789    4.1616 C.3       1 <0>        -0.1741
     28 C19        -2.8927   -2.5195    2.6497 C.3       1 <0>        -0.1503
     29 H4          0.1916    2.5142   -0.0368 H         1 <0>         0.0542
     30 H5         -1.4252    2.1255   -0.6717 H         1 <0>         0.0813
     31 H6         -1.1533    2.1993    1.0859 H         1 <0>         0.0667
     32 H7         -2.2163   -0.2175   -0.7294 H         1 <0>         0.0826
     33 H8         -1.3855   -1.4500    0.2477 H         1 <0>         0.0803
     34 H9         -2.6785    1.0793    1.3608 H         1 <0>         0.0716
     35 H10        -3.4175   -0.5400    1.3875 H         1 <0>         0.0888
     36 H11         3.3502   -1.3618    1.6419 H         1 <0>         0.1101
     37 H12         4.7002   -0.2323    1.9668 H         1 <0>         0.1081
     38 H13         4.3088    0.3904   -1.8104 H         1 <0>         0.0844
     39 H14         1.2594    2.1675   -1.0584 H         1 <0>         0.4103
     40 H15         2.5971    1.5441   -1.8613 H         1 <0>         0.4180
     41 H16        -0.8626   -2.1908    2.0085 H         1 <0>         0.0763
     42 H17        -1.3954   -1.5544    4.9259 H         1 <0>         0.0557
     43 H18        -1.1194   -3.2287    4.3884 H         1 <0>         0.0594
     44 H19         0.1415   -1.9962    4.1443 H         1 <0>         0.0834
     45 H20        -2.7701   -3.5993    2.7339 H         1 <0>         0.0610
     46 H21        -3.5605   -2.1673    3.4360 H         1 <0>         0.0575
     47 H22        -3.3183   -2.2770    1.6760 H         1 <0>         0.0627
@<TRIPOS>BOND
     1    1    2 1
     2    1   29 1
     3    1   30 1
     4    1   31 1
     5    2    3 1
     6    2   10 1
     7    2    4 1
     8    4    5 1
     9    4   32 1
    10    4   33 1
    11    5    6 1
    12    5   34 1
    13    5   35 1
    14    6    7 1
    15    6    8 1
    16    6   26 1
    17    8    9 2
    18    8   10 1
    19   10   11 1
    20   10   12 1
    21   12   16 1
    22   12   13 1
    23   12   24 1
    24   13   14 2
    25   13   23 1
    26   14   15 1
    27   14   21 1
    28   15   16 1
    29   15   36 1
    30   15   37 1
    31   16   17 1
    32   16   19 1
    33   17   18 3
    34   19   20 3
    35   21   22 2
    36   21   38 1
    37   23   39 1
    38   23   40 1
    39   24   25 3
    40   26   27 1
    41   26   28 1
    42   26   41 1
    43   27   42 1
    44   27   43 1
    45   27   44 1
    46   28   45 1
    47   28   46 1
    48   28   47 1
@<TRIPOS>MOLECULE
ZINC40133614
   43    46     0     0     0
SMALL
USER_CHARGES

@<TRIPOS>ATOM
      1 C1         -0.0047    1.5022    0.0096 C.3       1 <0>        -0.1050
      2 C2          0.0218   -0.0046    0.0016 C.2       1 <0>        -0.0054
      3 C3          0.0395   -0.8408   -1.1249 C.2       1 <0>        -0.2860
      4 C4          0.0591   -2.1519   -0.6621 C.2       1 <0>         0.0991
      5 O1          0.0576   -2.1137    0.6636 O.3       1 <0>        -0.1424
      6 C5          0.0393   -0.8296    1.0887 C.2       1 <0>        -0.1161
      7 C6          0.0356   -0.3945    2.4904 C.2       1 <0>         0.6145
      8 O2          0.0157    0.7922    2.7592 O.2       1 <0>        -0.4901
      9 N1          0.0544   -1.3093    3.4800 N.am      1 <0>        -0.6592
     10 C7          0.1678   -0.8965    4.8125 C.ar      1 <0>         0.1512
     11 C8          0.7600    0.3214    5.1144 C.ar      1 <0>        -0.1397
     12 C9          0.8704    0.7272    6.4363 C.ar      1 <0>         0.1775
     13 C10         0.3882   -0.0858    7.4544 C.ar      1 <0>        -0.1130
     14 C11        -0.2008   -1.2986    7.1526 C.ar      1 <0>        -0.0916
     15 C12        -0.3182   -1.7041    5.8354 C.ar      1 <0>         0.0506
     16 F1         -0.8998   -2.8878    5.5426 F         1 <0>        -0.1342
     17 C13         0.5091    0.3592    8.8890 C.3       1 <0>        -0.0760
     18 C14         1.8010    1.1567    9.0698 C.3       1 <0>        -0.1394
     19 C15         1.9144    2.2001    7.9913 C.2       1 <0>         0.5214
     20 O3          2.4158    3.2745    8.2470 O.2       1 <0>        -0.5206
     21 N2          1.4664    1.9548    6.7464 N.am      1 <0>        -0.6610
     22 C16         0.0751   -3.3441   -1.5844 C.3       1 <0>        -0.0508
     23 C17        -0.4369   -2.9223   -2.9647 C.3       1 <0>        -0.1128
     24 C18         0.3358   -1.7039   -3.4799 C.3       1 <0>        -0.1654
     25 C19         0.0420   -0.5263   -2.5619 C.2       1 <0>         0.4260
     26 O4         -0.1748    0.5900   -2.9842 O.2       1 <0>        -0.4420
     27 H1          1.0165    1.8835    0.0091 H         1 <0>         0.0824
     28 H2         -0.5269    1.8611   -0.8773 H         1 <0>         0.0829
     29 H3         -0.5226    1.8517    0.9026 H         1 <0>         0.0910
     30 H4         -0.0106   -2.2537    3.2687 H         1 <0>         0.4215
     31 H5          1.1345    0.9521    4.3217 H         1 <0>         0.1626
     32 H6         -0.5742   -1.9289    7.9461 H         1 <0>         0.1503
     33 H7         -0.3440    0.9864    9.1478 H         1 <0>         0.0889
     34 H8          0.5277   -0.5148    9.5400 H         1 <0>         0.0970
     35 H9          1.7926    1.6434   10.0450 H         1 <0>         0.1134
     36 H10         2.6545    0.4812    9.0112 H         1 <0>         0.1067
     37 H11         1.5575    2.6333    6.0593 H         1 <0>         0.4151
     38 H12         1.0938   -3.7214   -1.6739 H         1 <0>         0.1096
     39 H13        -0.5689   -4.1253   -1.1805 H         1 <0>         0.1043
     40 H14        -0.3099   -3.7495   -3.6629 H         1 <0>         0.0988
     41 H15        -1.4955   -2.6724   -2.8939 H         1 <0>         0.0776
     42 H16         1.4047   -1.9171   -3.4729 H         1 <0>         0.1062
     43 H17         0.0146   -1.4676   -4.4944 H         1 <0>         0.1024
@<TRIPOS>BOND
     1    1    2 1
     2    1   27 1
     3    1   28 1
     4    1   29 1
     5    2    6 2
     6    2    3 1
     7    3   25 1
     8    3    4 2
     9    4    5 1
    10    4   22 1
    11    5    6 1
    12    6    7 1
    13    7    8 2
    14    7    9 am
    15    9   10 1
    16    9   30 1
    17   10   15 ar
    18   10   11 ar
    19   11   12 ar
    20   11   31 1
    21   12   21 1
    22   12   13 ar
    23   13   14 ar
    24   13   17 1
    25   14   15 ar
    26   14   32 1
    27   15   16 1
    28   17   18 1
    29   17   33 1
    30   17   34 1
    31   18   19 1
    32   18   35 1
    33   18   36 1
    34   19   20 2
    35   19   21 am
    36   21   37 1
    37   22   23 1
    38   22   38 1
    39   22   39 1
    40   23   24 1
    41   23   40 1
    42   23   41 1
    43   24   25 1
    44   24   42 1
    45   24   43 1
    46   25   26 2
@<TRIPOS>MOLECULE
ZINC03464806
   44    46     0     0     0
SMALL
USER_CHARGES

@<TRIPOS>ATOM
      1 C1         -3.6208    3.1468    2.2070 C.3       1 <0>        -0.1552
      2 C2         -4.5971    2.2216    2.9362 C.3       1 <0>        -0.0852
      3 H1         -5.1918    2.8036    3.6403 H         1 <0>         0.0970
      4 C3         -5.5233    1.5523    1.9174 C.3       1 <0>        -0.1122
      5 C4         -6.4857    0.6121    2.6458 C.3       1 <0>        -0.1254
      6 C5         -5.6890   -0.4662    3.3830 C.3       1 <0>        -0.1167
      7 C6         -4.7633    0.1957    4.4071 C.3       1 <0>        -0.1159
      8 C7         -3.8156    1.1532    3.6929 C.3       1 <0>         0.1333
      9 C8         -2.8681    1.7929    4.6813 C.2       1 <0>         0.5394
     10 O1         -3.1569    2.4994    5.6232 O.2       1 <0>        -0.4570
     11 N1         -1.6329    1.4113    4.2950 N.am      1 <0>        -0.5641
     12 C9         -1.6756    0.6277    3.2106 C.2       1 <0>         0.7096
     13 O2         -0.6898    0.1590    2.6761 O.2       1 <0>        -0.5380
     14 N2         -2.9336    0.4169    2.7783 N.am      1 <0>        -0.7107
     15 C10        -0.3982    1.8061    4.9775 C.3       1 <0>         0.1033
     16 C11        -0.0686    0.7944    6.0447 C.2       1 <0>         0.5089
     17 O3         -0.7938   -0.1623    6.2181 O.2       1 <0>        -0.5069
     18 N3          1.0320    0.9526    6.8064 N.am      1 <0>        -0.6775
     19 C12         1.2824    0.0718    7.8676 C.ar      1 <0>         0.0595
     20 C13         0.7719    0.3411    9.1319 C.ar      1 <0>         0.1396
     21 C14         1.0213   -0.5306   10.1767 C.ar      1 <0>        -0.1597
     22 C15         1.7774   -1.6686    9.9645 C.ar      1 <0>        -0.0506
     23 C16         2.2870   -1.9400    8.7082 C.ar      1 <0>        -0.1599
     24 C17         2.0372   -1.0761    7.6569 C.ar      1 <0>         0.1419
     25 F1          2.5309   -1.3450    6.4285 F         1 <0>        -0.1209
     26 F2          0.0333    1.4530    9.3403 F         1 <0>        -0.1219
     27 H2         -3.0260    2.5650    1.5029 H         1 <0>         0.0619
     28 H3         -4.1793    3.9109    1.6663 H         1 <0>         0.0702
     29 H4         -2.9615    3.6237    2.9323 H         1 <0>         0.0516
     30 H5         -6.0925    2.3158    1.3872 H         1 <0>         0.0759
     31 H6         -4.9278    0.9820    1.2045 H         1 <0>         0.0657
     32 H7         -7.0761    1.1817    3.3636 H         1 <0>         0.0688
     33 H8         -7.1506    0.1410    1.9219 H         1 <0>         0.0702
     34 H9         -6.3762   -1.1392    3.8958 H         1 <0>         0.0755
     35 H10        -5.0932   -1.0316    2.6664 H         1 <0>         0.0648
     36 H11        -5.3603    0.7488    5.1322 H         1 <0>         0.0898
     37 H12        -4.1847   -0.5709    4.9225 H         1 <0>         0.0780
     38 H13        -3.2036   -0.1160    2.0141 H         1 <0>         0.4404
     39 H14         0.4173    1.8516    4.2557 H         1 <0>         0.1339
     40 H15        -0.5334    2.7861    5.4352 H         1 <0>         0.1321
     41 H16         1.6508    1.6760    6.6202 H         1 <0>         0.4162
     42 H17         0.6252   -0.3218   11.1595 H         1 <0>         0.1499
     43 H18         1.9706   -2.3471   10.7822 H         1 <0>         0.1504
     44 H19         2.8772   -2.8299    8.5463 H         1 <0>         0.1498
@<TRIPOS>BOND
     1    1    2 1
     2    1   27 1
     3    1   28 1
     4    1   29 1
     5    2    3 1
     6    2    8 1
     7    2    4 1
     8    4    5 1
     9    4   30 1
    10    4   31 1
    11    5    6 1
    12    5   32 1
    13    5   33 1
    14    6    7 1
    15    6   34 1
    16    6   35 1
    17    7    8 1
    18    7   36 1
    19    7   37 1
    20    8   14 1
    21    8    9 1
    22    9   10 2
    23    9   11 am
    24   11   12 am
    25   11   15 1
    26   12   13 2
    27   12   14 am
    28   14   38 1
    29   15   16 1
    30   15   39 1
    31   15   40 1
    32   16   17 2
    33   16   18 am
    34   18   19 1
    35   18   41 1
    36   19   24 ar
    37   19   20 ar
    38   20   21 ar
    39   20   26 1
    40   21   22 ar
    41   21   42 1
    42   22   23 ar
    43   22   43 1
    44   23   24 ar
    45   23   44 1
    46   24   25 1
@<TRIPOS>MOLECULE
ZINC67022177
   39    41     0     0     0
SMALL
USER_CHARGES

@<TRIPOS>ATOM
      1 C1         -0.0187    1.5258    0.0104 C.3       1 <0>        -0.1457
      2 C2          0.0021   -0.0041    0.0020 C.3       1 <0>        -0.0696
      3 C3          0.7074   -0.4901   -1.2379 C.2       1 <0>        -0.0598
      4 C4          0.0497   -0.7262   -2.3889 C.2       1 <0>        -0.2167
      5 S1          1.3368   -1.2668   -3.4922 S.3       1 <0>         0.3089
      6 C5          2.6619   -1.1775   -2.4669 C.2       1 <0>         0.0592
      7 C6          2.1323   -0.7259   -1.2675 C.2       1 <0>        -0.1404
      8 C7          2.9551   -0.5092   -0.1156 C.1       1 <0>         0.2714
      9 N1          3.6078   -0.3374    0.7981 N.1       1 <0>        -0.4268
     10 N2          3.9844   -1.4802   -2.7547 N.am      1 <0>        -0.6181
     11 C8          4.3258   -1.9040   -3.9877 C.2       1 <0>         0.5588
     12 O1          3.4742   -2.0210   -4.8478 O.2       1 <0>        -0.4680
     13 C9          5.7323   -2.2258   -4.2937 C.ar      1 <0>        -0.1327
     14 C10         6.7151   -2.0985   -3.3062 C.ar      1 <0>        -0.0763
     15 C11         8.0278   -2.4007   -3.5952 C.ar      1 <0>        -0.1117
     16 C12         8.3860   -2.8321   -4.8625 C.ar      1 <0>        -0.0873
     17 C13         7.4252   -2.9626   -5.8501 C.ar      1 <0>         0.0872
     18 C14         6.0919   -2.6658   -5.5711 C.ar      1 <0>         0.1466
     19 O2          5.1580   -2.8005   -6.5461 O.3       1 <0>        -0.2705
     20 C15         5.5841   -2.5380   -7.8857 C.3       1 <0>         0.0467
     21 C16         6.8956   -3.2345   -8.1455 C.2       1 <0>         0.4903
     22 O3          7.1624   -3.6351   -9.2588 O.2       1 <0>        -0.5005
     23 N3          7.7746   -3.3990   -7.1364 N.am      1 <0>        -0.6595
     24 C17        -1.4219   -0.5707   -2.6738 C.3       1 <0>        -0.0663
     25 H1          1.0039    1.9031    0.0027 H         1 <0>         0.0527
     26 H2         -0.5459    1.8868   -0.8726 H         1 <0>         0.0603
     27 H3         -0.5289    1.8773    0.9072 H         1 <0>         0.0604
     28 H4          0.5293   -0.3651    0.8851 H         1 <0>         0.0680
     29 H5         -1.0205   -0.3814    0.0098 H         1 <0>         0.0822
     30 H6          4.6637   -1.3868   -2.0685 H         1 <0>         0.4191
     31 H7          6.4445   -1.7626   -2.3162 H         1 <0>         0.1366
     32 H8          8.7826   -2.3005   -2.8293 H         1 <0>         0.1453
     33 H9          9.4175   -3.0667   -5.0802 H         1 <0>         0.1440
     34 H10         4.8329   -2.9065   -8.5843 H         1 <0>         0.1533
     35 H11         5.7102   -1.4640   -8.0225 H         1 <0>         0.1059
     36 H12         8.6319   -3.8235   -7.2967 H         1 <0>         0.4201
     37 H13        -1.6177    0.4396   -3.0330 H         1 <0>         0.0783
     38 H14        -1.7229   -1.2913   -3.4342 H         1 <0>         0.0744
     39 H15        -1.9896   -0.7479   -1.7603 H         1 <0>         0.0803
@<TRIPOS>BOND
     1    1    2 1
     2    1   25 1
     3    1   26 1
     4    1   27 1
     5    2    3 1
     6    2   28 1
     7    2   29 1
     8    3    7 1
     9    3    4 2
    10    4    5 1
    11    4   24 1
    12    5    6 1
    13    6    7 2
    14    6   10 1
    15    7    8 1
    16    8    9 3
    17   10   11 am
    18   10   30 1
    19   11   12 2
    20   11   13 1
    21   13   18 ar
    22   13   14 ar
    23   14   15 ar
    24   14   31 1
    25   15   16 ar
    26   15   32 1
    27   16   17 ar
    28   16   33 1
    29   17   23 1
    30   17   18 ar
    31   18   19 1
    32   19   20 1
    33   20   21 1
    34   20   34 1
    35   20   35 1
    36   21   22 2
    37   21   23 am
    38   23   36 1
    39   24   37 1
    40   24   38 1
    41   24   39 1
@<TRIPOS>MOLECULE
ZINC06257991
   50    54     0     0     0
SMALL
USER_CHARGES
N-[2-(4-hydroxyphenyl)aminoacenaphthen-1-yl]benzenesulfonamide
@<TRIPOS>ATOM
      1 C1         -0.8882   -5.9994    4.3369 C.ar      1 <0>        -0.0606
      2 C2          0.3238   -6.1349    3.6861 C.ar      1 <0>        -0.1386
      3 C3          0.8933   -5.0465    3.0520 C.ar      1 <0>        -0.0194
      4 C4          0.2504   -3.8229    3.0680 C.ar      1 <0>        -0.6799
      5 C5         -0.9593   -3.6862    3.7229 C.ar      1 <0>        -0.0246
      6 C6         -1.5307   -4.7755    4.3537 C.ar      1 <0>        -0.1379
      7 S1          0.9763   -2.4357    2.2598 S.o2      1 <0>         2.6847
      8 O1          2.3726   -2.6901    2.1918 O.2       1 <0>        -0.9525
      9 O2          0.4426   -1.2764    2.8848 O.2       1 <0>        -0.9349
     10 N1          0.4196   -2.4312    0.7001 N.pl3     1 <0>        -1.1055
     11 C7         -1.0047   -2.2180    0.4313 C.3       1 <0>         0.2024
     12 H1         -1.6021   -2.5265    1.2893 H         1 <0>         0.1123
     13 C8         -1.4246   -2.9824   -0.8005 C.ar      1 <0>        -0.1034
     14 C9         -1.4442   -4.2984   -1.1493 C.ar      1 <0>        -0.0736
     15 C10        -1.9082   -4.6879   -2.4076 C.ar      1 <0>        -0.1193
     16 C11        -2.3570   -3.7881   -3.3309 C.ar      1 <0>        -0.0899
     17 C12        -2.3503   -2.4224   -3.0041 C.ar      1 <0>        -0.0493
     18 C13        -1.8782   -2.0540   -1.7316 C.ar      1 <0>        -0.0621
     19 C14        -1.8273   -0.7314   -1.3026 C.ar      1 <0>        -0.1029
     20 C15        -2.2546    0.2349   -2.1608 C.ar      1 <0>        -0.0756
     21 C16        -2.7276   -0.1072   -3.4301 C.ar      1 <0>        -0.1129
     22 C17        -2.7839   -1.3998   -3.8641 C.ar      1 <0>        -0.0988
     23 C18        -1.2705   -0.7332    0.1002 C.3       1 <0>         0.1889
     24 H2         -1.9975   -0.3138    0.7957 H         1 <0>         0.1103
     25 N2         -0.0210    0.0300    0.1515 N.pl3     1 <0>        -0.7260
     26 C19        -0.0523    1.4081    0.3929 C.ar      1 <0>         0.2185
     27 C20        -1.2678    2.0535    0.5781 C.ar      1 <0>        -0.1813
     28 C21        -1.2974    3.4128    0.8206 C.ar      1 <0>        -0.0945
     29 C22        -0.1142    4.1349    0.8695 C.ar      1 <0>         0.0426
     30 C23         1.0999    3.4919    0.6794 C.ar      1 <0>        -0.0935
     31 C24         1.1318    2.1319    0.4416 C.ar      1 <0>        -0.1773
     32 O3         -0.1446    5.4743    1.1037 O.3       1 <0>        -0.4992
     33 H3         -1.3330   -6.8496    4.8326 H         1 <0>         0.1330
     34 H4          0.8259   -7.0910    3.6732 H         1 <0>         0.1348
     35 H5          1.8404   -5.1523    2.5438 H         1 <0>         0.1401
     36 H6         -1.4595   -2.7292    3.7392 H         1 <0>         0.1408
     37 H7         -2.4774   -4.6696    4.8625 H         1 <0>         0.1351
     38 H8          1.0365   -2.5697   -0.0354 H         1 <0>         0.4229
     39 H9         -1.0988   -5.0448   -0.4493 H         1 <0>         0.1251
     40 H10        -1.9131   -5.7383   -2.6587 H         1 <0>         0.1265
     41 H11        -2.7110   -4.1207   -4.2955 H         1 <0>         0.1318
     42 H12        -2.2281    1.2715   -1.8588 H         1 <0>         0.1267
     43 H13        -3.0609    0.6792   -4.0911 H         1 <0>         0.1255
     44 H14        -3.1549   -1.6324   -4.8514 H         1 <0>         0.1310
     45 H15         0.8279   -0.4199    0.0182 H         1 <0>         0.3973
     46 H16        -2.1894    1.4920    0.5363 H         1 <0>         0.1248
     47 H17        -2.2425    3.9144    0.9680 H         1 <0>         0.1266
     48 H18         2.0208    4.0550    0.7177 H         1 <0>         0.1271
     49 H19         2.0772    1.6314    0.2932 H         1 <0>         0.1226
     50 H20        -0.2097    6.0122    0.3027 H         1 <0>         0.3819
@<TRIPOS>BOND
     1    1    6 ar
     2    1    2 ar
     3    1   33 1
     4    2    3 ar
     5    2   34 1
     6    3    4 ar
     7    3   35 1
     8    4    5 ar
     9    4    7 1
    10    5    6 ar
    11    5   36 1
    12    6   37 1
    13    7    8 2
    14    7    9 2
    15    7   10 1
    16   10   11 1
    17   10   38 1
    18   11   12 1
    19   11   23 1
    20   11   13 1
    21   13   18 ar
    22   13   14 ar
    23   14   15 ar
    24   14   39 1
    25   15   16 ar
    26   15   40 1
    27   16   17 ar
    28   16   41 1
    29   17   22 ar
    30   17   18 ar
    31   18   19 ar
    32   19   20 ar
    33   19   23 1
    34   20   21 ar
    35   20   42 1
    36   21   22 ar
    37   21   43 1
    38   22   44 1
    39   23   24 1
    40   23   25 1
    41   25   26 1
    42   25   45 1
    43   26   31 ar
    44   26   27 ar
    45   27   28 ar
    46   27   46 1
    47   28   29 ar
    48   28   47 1
    49   29   30 ar
    50   29   32 1
    51   30   31 ar
    52   30   48 1
    53   31   49 1
    54   32   50 1
@<TRIPOS>MOLECULE
ZINC11024106
   50    52     0     0     0
SMALL
USER_CHARGES
4-hydroxy-6-(4-tert-butylphenyl)-5-(2-thienylcarbonyl)-4-(trifluoromethyl)hexahydropyrimidin-2-one
@<TRIPOS>ATOM
      1 C1          0.2822    3.8946   -6.8457 C.3       1 <0>        -0.1393
      2 C2          1.1689    3.1519   -5.8442 C.3       1 <0>        -0.0326
      3 C3          2.5655    3.7767   -5.8384 C.3       1 <0>        -0.1464
      4 C4          1.2706    1.6794   -6.2470 C.3       1 <0>        -0.1390
      5 C5          0.5665    3.2554   -4.4667 C.ar      1 <0>        -0.0544
      6 C6         -0.6996    2.7553   -4.2267 C.ar      1 <0>        -0.1150
      7 C7         -1.2520    2.8499   -2.9630 C.ar      1 <0>        -0.0938
      8 C8         -0.5384    3.4449   -1.9395 C.ar      1 <0>        -0.1278
      9 C9          0.7255    3.9501   -2.1809 C.ar      1 <0>        -0.0971
     10 C10         1.2800    3.8509   -3.4433 C.ar      1 <0>        -0.1187
     11 C11        -1.1408    3.5484   -0.5620 C.3       1 <0>         0.2100
     12 H1         -2.2278    3.5709   -0.6395 H         1 <0>         0.1094
     13 C12        -0.7120    2.3395    0.2765 C.3       1 <0>        -0.1277
     14 H2         -1.0910    1.5051   -0.1236 H         1 <0>         0.1207
     15 C13        -1.2392    2.5241    1.7036 C.3       1 <0>         0.3269
     16 N1         -0.7641    3.8050    2.2291 N.am      1 <0>        -0.7366
     17 C14        -0.5151    4.8432    1.4170 C.2       1 <0>         0.7398
     18 O1         -0.1324    5.8884    1.9062 O.2       1 <0>        -0.5721
     19 N2         -0.6719    4.7740    0.0867 N.am      1 <0>        -0.7161
     20 C15        -0.7281    1.3855    2.5887 C.3       1 <0>         0.4202
     21 F1          0.6707    1.3983    2.6036 F         1 <0>        -0.1590
     22 F2         -1.2100    1.5551    3.8911 F         1 <0>        -0.1700
     23 F3         -1.1779    0.1621    2.0806 F         1 <0>        -0.1555
     24 O2         -2.6681    2.5139    1.6899 O.3       1 <0>        -0.5261
     25 C16         0.7920    2.2480    0.3005 C.2       1 <0>         0.4440
     26 O3          1.4576    3.2428    0.5062 O.2       1 <0>        -0.4088
     27 C17         1.4276    1.0066    0.0780 C.2       1 <0>        -0.2810
     28 C18         2.7866    0.7100    0.0472 C.2       1 <0>        -0.0452
     29 C19         3.1337   -0.5943   -0.1879 C.2       1 <0>        -0.1855
     30 C20         2.1543   -1.5177   -0.3879 C.2       1 <0>        -0.1685
     31 S1          0.6975   -0.5890   -0.2447 S.3       1 <0>         0.1684
     32 H3          0.2097    4.9436   -6.5588 H         1 <0>         0.0572
     33 H4          0.7179    3.8197   -7.8421 H         1 <0>         0.0602
     34 H5         -0.7128    3.4495   -6.8499 H         1 <0>         0.0578
     35 H6          3.1973    3.2477   -5.1248 H         1 <0>         0.0586
     36 H7          3.0012    3.7019   -6.8347 H         1 <0>         0.0601
     37 H8          2.4931    4.8258   -5.5514 H         1 <0>         0.0596
     38 H9          0.2757    1.2343   -6.2512 H         1 <0>         0.0579
     39 H10         1.7063    1.6046   -7.2434 H         1 <0>         0.0602
     40 H11         1.9024    1.1504   -5.5335 H         1 <0>         0.0560
     41 H12        -1.2571    2.2904   -5.0263 H         1 <0>         0.1260
     42 H13        -2.2412    2.4591   -2.7755 H         1 <0>         0.1279
     43 H14         1.2812    4.4190   -1.3823 H         1 <0>         0.1340
     44 H15         2.2690    4.2420   -3.6309 H         1 <0>         0.1291
     45 H16        -0.6268    3.9052    3.1841 H         1 <0>         0.4222
     46 H17        -0.4699    5.5517   -0.4567 H         1 <0>         0.4235
     47 H18        -3.0705    2.6262    2.5620 H         1 <0>         0.4001
     48 H19         3.5343    1.4731    0.2050 H         1 <0>         0.1481
     49 H20         4.1733   -0.8855   -0.2190 H         1 <0>         0.1436
     50 H21         2.2593   -2.5739   -0.5878 H         1 <0>         0.1945
@<TRIPOS>BOND
     1    1    2 1
     2    1   32 1
     3    1   33 1
     4    1   34 1
     5    2    3 1
     6    2    4 1
     7    2    5 1
     8    3   35 1
     9    3   36 1
    10    3   37 1
    11    4   38 1
    12    4   39 1
    13    4   40 1
    14    5   10 ar
    15    5    6 ar
    16    6    7 ar
    17    6   41 1
    18    7    8 ar
    19    7   42 1
    20    8    9 ar
    21    8   11 1
    22    9   10 ar
    23    9   43 1
    24   10   44 1
    25   11   12 1
    26   11   19 1
    27   11   13 1
    28   13   14 1
    29   13   15 1
    30   13   25 1
    31   15   16 1
    32   15   20 1
    33   15   24 1
    34   16   17 am
    35   16   45 1
    36   17   18 2
    37   17   19 am
    38   19   46 1
    39   20   21 1
    40   20   22 1
    41   20   23 1
    42   24   47 1
    43   25   26 2
    44   25   27 1
    45   27   31 1
    46   27   28 2
    47   28   29 1
    48   28   48 1
    49   29   30 2
    50   29   49 1
    51   30   31 1
    52   30   50 1
@<TRIPOS>MOLECULE
ZINC14737079
   37    38     0     0     0
SMALL
USER_CHARGES
2-[(1R)-2-[(4-bromophenyl)amino]-1-methyl-2-oxo-ethoxy]-5-chloro-benzamide
@<TRIPOS>ATOM
      1 C1          3.7741   -0.9059    1.4171 C.3       1 <0>        -0.1796
      2 C2          3.5568   -0.8097   -0.0944 C.3       1 <0>         0.0612
      3 H1          3.5105   -1.8124   -0.5193 H         1 <0>         0.1044
      4 C3          4.6998   -0.0517   -0.7189 C.2       1 <0>         0.5156
      5 O1          4.4985    1.0199   -1.2501 O.2       1 <0>        -0.4728
      6 N1          5.9458   -0.5647   -0.6872 N.am      1 <0>        -0.6712
      7 C4          7.0242    0.1864   -1.1686 C.ar      1 <0>         0.1640
      8 C5          8.0998   -0.4499   -1.7741 C.ar      1 <0>        -0.1396
      9 C6          9.1598    0.2942   -2.2538 C.ar      1 <0>        -0.0693
     10 C7          9.1562    1.6714   -2.1209 C.ar      1 <0>        -0.1061
     11 C8          8.0886    2.3074   -1.5124 C.ar      1 <0>        -0.0678
     12 C9          7.0232    1.5688   -1.0365 C.ar      1 <0>        -0.1160
     13 Br1        10.6126    2.6863   -2.7725 Br        1 <0>        -0.0479
     14 O2          2.3308   -0.1241   -0.3567 O.3       1 <0>        -0.2448
     15 C10         1.1947   -0.8656   -0.3402 C.ar      1 <0>         0.1912
     16 C11         1.2394   -2.2000    0.0355 C.ar      1 <0>        -0.2106
     17 C12         0.0840   -2.9553    0.0460 C.ar      1 <0>        -0.0385
     18 C13        -1.1287   -2.3867   -0.3122 C.ar      1 <0>        -0.0814
     19 C14        -1.1918   -1.0602   -0.6832 C.ar      1 <0>        -0.0369
     20 C15        -0.0295   -0.2852   -0.6980 C.ar      1 <0>        -0.1584
     21 C16        -0.0896    1.1348   -1.0938 C.2       1 <0>         0.5597
     22 O3          0.9241    1.8062   -1.1054 O.2       1 <0>        -0.5032
     23 N2         -1.2673    1.6864   -1.4479 N.am      1 <0>        -0.8542
     24 Cl1        -2.5735   -3.3490   -0.2942 Cl        1 <0>        -0.0580
     25 H2          3.8203    0.0968    1.8420 H         1 <0>         0.0810
     26 H3          2.9473   -1.4542    1.8688 H         1 <0>         0.0815
     27 H4          4.7092   -1.4289    1.6172 H         1 <0>         0.0830
     28 H5          6.0951   -1.4544   -0.3308 H         1 <0>         0.4136
     29 H6          8.1053   -1.5253   -1.8738 H         1 <0>         0.1365
     30 H7          9.9942   -0.1997   -2.7295 H         1 <0>         0.1385
     31 H8          8.0883    3.3826   -1.4100 H         1 <0>         0.1380
     32 H9          6.1898    2.0658   -0.5623 H         1 <0>         0.1444
     33 H10         2.1804   -2.6500    0.3159 H         1 <0>         0.1477
     34 H11         0.1249   -3.9953    0.3347 H         1 <0>         0.1449
     35 H12        -2.1382   -0.6210   -0.9623 H         1 <0>         0.1454
     36 H13        -2.0753    1.1498   -1.4424 H         1 <0>         0.3981
     37 H14        -1.3068    2.6200   -1.7081 H         1 <0>         0.4079
@<TRIPOS>BOND
     1    1    2 1
     2    1   25 1
     3    1   26 1
     4    1   27 1
     5    2    3 1
     6    2    4 1
     7    2   14 1
     8    4    5 2
     9    4    6 am
    10    6    7 1
    11    6   28 1
    12    7   12 ar
    13    7    8 ar
    14    8    9 ar
    15    8   29 1
    16    9   10 ar
    17    9   30 1
    18   10   11 ar
    19   10   13 1
    20   11   12 ar
    21   11   31 1
    22   12   32 1
    23   14   15 1
    24   15   20 ar
    25   15   16 ar
    26   16   17 ar
    27   16   33 1
    28   17   18 ar
    29   17   34 1
    30   18   19 ar
    31   18   24 1
    32   19   20 ar
    33   19   35 1
    34   20   21 1
    35   21   22 2
    36   21   23 am
    37   23   36 1
    38   23   37 1
@<TRIPOS>MOLECULE
ZINC35023521
   50    52     0     0     0
SMALL
USER_CHARGES

@<TRIPOS>ATOM
      1 C1          0.2515    1.4957    0.1758 C.3       1 <0>        -0.1433
      2 C2          0.0016   -0.0037    0.0016 C.3       1 <0>        -0.0597
      3 C3         -1.5010   -0.2580   -0.1338 C.3       1 <0>        -0.1449
      4 C4          0.7071   -0.4898   -1.2381 C.ar      1 <0>        -0.0629
      5 C5          0.3913    0.0515   -2.4703 C.ar      1 <0>        -0.1168
      6 C6          1.0384   -0.3944   -3.6075 C.ar      1 <0>        -0.1003
      7 C7          2.0018   -1.3813   -3.5125 C.ar      1 <0>        -0.1003
      8 C8          2.3182   -1.9219   -2.2803 C.ar      1 <0>        -0.0543
      9 C9          1.6741   -1.4730   -1.1425 C.ar      1 <0>        -0.1220
     10 C10         2.7066   -1.8681   -4.7524 C.3       1 <0>         0.2000
     11 H1          2.0002   -1.9064   -5.5817 H         1 <0>         0.1107
     12 C11         3.8522   -0.9113   -5.0993 C.3       1 <0>        -0.1257
     13 H2          3.4653    0.1030   -5.1966 H         1 <0>         0.1486
     14 C12         4.8878   -0.9609   -3.9708 C.3       1 <0>         0.4110
     15 N1          5.3160   -2.3466   -3.7725 N.am      1 <0>        -0.7316
     16 C13         4.4972   -3.3749   -4.0397 C.2       1 <0>         0.7223
     17 O1          4.8985   -4.5062   -3.8467 O.2       1 <0>        -0.5811
     18 N2          3.2518   -3.2052   -4.5121 N.am      1 <0>        -0.7330
     19 C14         6.0780   -0.1143   -4.3419 C.ar      1 <0>        -0.1581
     20 C15         7.1367   -0.6747   -5.0318 C.ar      1 <0>        -0.0997
     21 C16         8.2284    0.1020   -5.3722 C.ar      1 <0>        -0.1200
     22 C17         8.2612    1.4391   -5.0231 C.ar      1 <0>        -0.1005
     23 C18         7.2021    1.9997   -4.3340 C.ar      1 <0>        -0.1218
     24 C19         6.1085    1.2241   -3.9974 C.ar      1 <0>        -0.0865
     25 O2          4.3041   -0.4641   -2.7648 O.3       1 <0>        -0.5321
     26 C20         4.4909   -1.3360   -6.3965 C.2       1 <0>         0.3281
     27 O3          5.4144   -2.1141   -6.3886 O.2       1 <0>        -0.3418
     28 C21         3.9773   -0.7895   -7.7036 C.3       1 <0>         0.4266
     29 F1          3.5368   -1.8449   -8.5094 F         1 <0>        -0.1591
     30 F2          2.9132    0.0848   -7.4576 F         1 <0>        -0.1643
     31 F3          5.0049   -0.1011   -8.3573 F         1 <0>        -0.1582
     32 H3          1.3220    1.6769    0.2723 H         1 <0>         0.0558
     33 H4         -0.1308    2.0311   -0.6933 H         1 <0>         0.0567
     34 H5         -0.2588    1.8473    1.0725 H         1 <0>         0.0573
     35 H6          0.3839   -0.5391    0.8707 H         1 <0>         0.0759
     36 H7         -1.8832    0.2774   -1.0029 H         1 <0>         0.0570
     37 H8         -1.6790   -1.3262   -0.2579 H         1 <0>         0.0555
     38 H9         -2.0113    0.0936    0.7629 H         1 <0>         0.0581
     39 H10        -0.3613    0.8225   -2.5445 H         1 <0>         0.1203
     40 H11         0.7912    0.0280   -4.5702 H         1 <0>         0.1209
     41 H12         3.0706   -2.6932   -2.2061 H         1 <0>         0.1133
     42 H13         1.9240   -1.8927   -0.1793 H         1 <0>         0.1169
     43 H14         6.2099   -2.5248   -3.4407 H         1 <0>         0.4183
     44 H15         2.7024   -3.9827   -4.6978 H         1 <0>         0.4235
     45 H16         7.1111   -1.7194   -5.3045 H         1 <0>         0.1384
     46 H17         9.0559   -0.3361   -5.9105 H         1 <0>         0.1274
     47 H18         9.1145    2.0457   -5.2884 H         1 <0>         0.1269
     48 H19         7.2279    3.0443   -4.0610 H         1 <0>         0.1288
     49 H20         5.2793    1.6630   -3.4623 H         1 <0>         0.1350
     50 H21         4.9048   -0.4666   -2.0070 H         1 <0>         0.3849
@<TRIPOS>BOND
     1    1    2 1
     2    1   32 1
     3    1   33 1
     4    1   34 1
     5    2    3 1
     6    2    4 1
     7    2   35 1
     8    3   36 1
     9    3   37 1
    10    3   38 1
    11    4    9 ar
    12    4    5 ar
    13    5    6 ar
    14    5   39 1
    15    6    7 ar
    16    6   40 1
    17    7    8 ar
    18    7   10 1
    19    8    9 ar
    20    8   41 1
    21    9   42 1
    22   10   11 1
    23   10   18 1
    24   10   12 1
    25   12   13 1
    26   12   14 1
    27   12   26 1
    28   14   15 1
    29   14   19 1
    30   14   25 1
    31   15   16 am
    32   15   43 1
    33   16   17 2
    34   16   18 am
    35   18   44 1
    36   19   24 ar
    37   19   20 ar
    38   20   21 ar
    39   20   45 1
    40   21   22 ar
    41   21   46 1
    42   22   23 ar
    43   22   47 1
    44   23   24 ar
    45   23   48 1
    46   24   49 1
    47   25   50 1
    48   26   27 2
    49   26   28 1
    50   28   29 1
    51   28   30 1
    52   28   31 1
@<TRIPOS>MOLECULE
ZINC59384622
   43    45     0     0     0
SMALL
USER_CHARGES

@<TRIPOS>ATOM
      1 C1         -0.0388    1.4909    0.0910 C.3       1 <0>        -0.1340
      2 C2         -0.0085   -0.0145    0.0297 C.2       1 <0>         0.1772
      3 C3         -1.1700   -0.7027    0.0325 C.2       1 <0>        -0.2502
      4 C4         -1.0942   -2.2147   -0.0308 C.3       1 <0>         0.2247
      5 H1         -1.6475   -2.5423   -0.9109 H         1 <0>         0.1047
      6 N1          0.2499   -2.8134   -0.0906 N.pl3     1 <0>        -0.6438
      7 C5          1.3186   -1.9924   -0.0856 C.2       1 <0>         0.5581
      8 S1          2.8873   -2.6745   -0.1553 S.2       1 <0>        -0.5938
      9 N2          1.1933   -0.6603   -0.0335 N.pl3     1 <0>        -0.5996
     10 C6         -1.7940   -2.7662    1.1846 C.ar      1 <0>        -0.1220
     11 C7         -1.1880   -2.6908    2.4248 C.ar      1 <0>        -0.0981
     12 C8         -1.8298   -3.1967    3.5396 C.ar      1 <0>        -0.1178
     13 C9         -3.0779   -3.7776    3.4144 C.ar      1 <0>        -0.1060
     14 C10        -3.6843   -3.8523    2.1744 C.ar      1 <0>        -0.1141
     15 C11        -3.0443   -3.3425    1.0602 C.ar      1 <0>        -0.0954
     16 C12        -2.4169   -0.0341    0.0931 C.2       1 <0>         0.6164
     17 O1         -3.0769    0.1165   -0.9193 O.2       1 <0>        -0.4840
     18 N3         -2.8732    0.4356    1.2711 N.am      1 <0>        -0.5732
     19 N4         -4.1526    1.0006    1.3516 N.2       1 <0>        -0.2209
     20 C13        -4.5920    1.4528    2.4859 C.2       1 <0>         0.1131
     21 C14        -5.9389    2.0476    2.5707 C.ar      1 <0>        -0.0502
     22 C15        -6.7467    2.1206    1.4331 C.ar      1 <0>        -0.0633
     23 C16        -8.0054    2.6776    1.5194 C.ar      1 <0>        -0.1162
     24 C17        -8.4693    3.1638    2.7290 C.ar      1 <0>        -0.0736
     25 C18        -7.6746    3.0955    3.8604 C.ar      1 <0>        -0.0960
     26 C19        -6.4148    2.5353    3.7897 C.ar      1 <0>        -0.0621
     27 Br1        -8.3187    3.7643    5.5077 Br        1 <0>        -0.0428
     28 H2          0.9809    1.8758    0.0748 H         1 <0>         0.0898
     29 H3         -0.5871    1.8786   -0.7675 H         1 <0>         0.1014
     30 H4         -0.5320    1.8073    1.0101 H         1 <0>         0.0930
     31 H5          0.3633   -3.7759   -0.1323 H         1 <0>         0.4486
     32 H6          2.0016   -0.1240   -0.0368 H         1 <0>         0.4422
     33 H7         -0.2129   -2.2369    2.5226 H         1 <0>         0.1152
     34 H8         -1.3561   -3.1383    4.5084 H         1 <0>         0.1260
     35 H9         -3.5791   -4.1735    4.2853 H         1 <0>         0.1263
     36 H10        -4.6593   -4.3065    2.0765 H         1 <0>         0.1275
     37 H11        -3.5196   -3.3975    0.0920 H         1 <0>         0.1261
     38 H12        -2.3157    0.3824    2.0631 H         1 <0>         0.3869
     39 H13        -3.9713    1.3936    3.3678 H         1 <0>         0.1236
     40 H14        -6.3861    1.7419    0.4882 H         1 <0>         0.1426
     41 H15        -8.6305    2.7348    0.6405 H         1 <0>         0.1383
     42 H16        -9.4558    3.5990    2.7906 H         1 <0>         0.1367
     43 H17        -5.7972    2.4783    4.6739 H         1 <0>         0.1386
@<TRIPOS>BOND
     1    1    2 1
     2    1   28 1
     3    1   29 1
     4    1   30 1
     5    2    9 1
     6    2    3 2
     7    3    4 1
     8    3   16 1
     9    4    5 1
    10    4    6 1
    11    4   10 1
    12    6    7 1
    13    6   31 1
    14    7    8 2
    15    7    9 1
    16    9   32 1
    17   10   15 ar
    18   10   11 ar
    19   11   12 ar
    20   11   33 1
    21   12   13 ar
    22   12   34 1
    23   13   14 ar
    24   13   35 1
    25   14   15 ar
    26   14   36 1
    27   15   37 1
    28   16   17 2
    29   16   18 am
    30   18   19 1
    31   18   38 1
    32   19   20 2
    33   20   21 1
    34   20   39 1
    35   21   26 ar
    36   21   22 ar
    37   22   23 ar
    38   22   40 1
    39   23   24 ar
    40   23   41 1
    41   24   25 ar
    42   24   42 1
    43   25   26 ar
    44   25   27 1
    45   26   43 1
@<TRIPOS>MOLECULE
ZINC01205578
   39    40     0     0     0
SMALL
USER_CHARGES
N-[(5-bromo-2-hydroxy-phenyl)methyleneamino]-3-(3,5-dimethyl-1H-pyrazol-4-yl)-propanamide
@<TRIPOS>ATOM
      1 C1          4.8740   10.1625    2.5371 C.3       1 <0>        -0.0970
      2 C2          4.8571   10.6312    1.1049 C.2       1 <0>         0.0953
      3 C3          4.8536    9.8406    0.0067 C.2       1 <0>        -0.2405
      4 C4          4.8422   10.6693   -1.1200 C.2       1 <0>         0.0843
      5 N1          4.8294   11.9126   -0.7129 N.2       1 <0>        -0.2941
      6 N2          4.8424   11.9146    0.6879 N.pl3     1 <0>        -0.4781
      7 H1          4.8410   12.7240    1.2751 H         1 <0>         0.4447
      8 C5          4.8404   10.2093   -2.5551 C.3       1 <0>        -0.0777
      9 C6          4.8662    8.3337   -0.0010 C.3       1 <0>        -0.0221
     10 C7          3.4281    7.8116    0.0098 C.3       1 <0>        -0.1284
     11 C8          3.4407    6.3047    0.0021 C.2       1 <0>         0.5290
     12 O1          4.4963    5.7070   -0.0108 O.2       1 <0>        -0.4953
     13 N3          2.2793    5.6210    0.0095 N.am      1 <0>        -0.5893
     14 N4          2.2910    4.2200    0.0024 N.2       1 <0>        -0.1988
     15 C9          1.1724    3.5616    0.0095 C.2       1 <0>         0.0964
     16 C10         1.1848    2.0879    0.0020 C.ar      1 <0>        -0.0779
     17 C11        -0.0166    1.3756    0.0096 C.ar      1 <0>        -0.0473
     18 C12         0.0021   -0.0041    0.0020 C.ar      1 <0>        -0.1078
     19 C13         1.2079   -0.6858   -0.0127 C.ar      1 <0>        -0.0585
     20 C14         2.4030    0.0083   -0.0204 C.ar      1 <0>        -0.1457
     21 C15         2.4021    1.3936   -0.0134 C.ar      1 <0>         0.1634
     22 O2          3.5763    2.0762   -0.0205 O.3       1 <0>        -0.4697
     23 Br1        -1.6247   -0.9681    0.0124 Br        1 <0>        -0.0409
     24 H2          5.9056   10.0578    2.8730 H         1 <0>         0.0836
     25 H3          4.3599   10.8911    3.1639 H         1 <0>         0.0723
     26 H4          4.3686    9.1995    2.6102 H         1 <0>         0.0860
     27 H5          3.8124   10.0898   -2.8971 H         1 <0>         0.0768
     28 H6          5.3456   10.9503   -3.1747 H         1 <0>         0.0739
     29 H7          5.3620    9.2553   -2.6315 H         1 <0>         0.0795
     30 H8          5.3914    7.9702    0.8823 H         1 <0>         0.0775
     31 H9          5.3747    7.9792   -0.8976 H         1 <0>         0.0807
     32 H10         2.9029    8.1751   -0.8735 H         1 <0>         0.0981
     33 H11         2.9196    8.1661    0.9064 H         1 <0>         0.0953
     34 H12         1.4352    6.0989    0.0198 H         1 <0>         0.3855
     35 H13         0.2327    4.0937    0.0210 H         1 <0>         0.1230
     36 H14        -0.9586    1.9037    0.0169 H         1 <0>         0.1423
     37 H15         1.2142   -1.7657   -0.0178 H         1 <0>         0.1403
     38 H16         3.3391   -0.5301   -0.0315 H         1 <0>         0.1435
     39 H17         3.9084    2.2783   -0.9059 H         1 <0>         0.3973
@<TRIPOS>BOND
     1    1    2 1
     2    1   24 1
     3    1   25 1
     4    1   26 1
     5    2    6 1
     6    2    3 2
     7    3    4 1
     8    3    9 1
     9    4    5 2
    10    4    8 1
    11    5    6 1
    12    6    7 1
    13    8   27 1
    14    8   28 1
    15    8   29 1
    16    9   10 1
    17    9   30 1
    18    9   31 1
    19   10   11 1
    20   10   32 1
    21   10   33 1
    22   11   12 2
    23   11   13 am
    24   13   14 1
    25   13   34 1
    26   14   15 2
    27   15   16 1
    28   15   35 1
    29   16   21 ar
    30   16   17 ar
    31   17   18 ar
    32   17   36 1
    33   18   19 ar
    34   18   23 1
    35   19   20 ar
    36   19   37 1
    37   20   21 ar
    38   20   38 1
    39   21   22 1
    40   22   39 1
@<TRIPOS>MOLECULE
ZINC13110660
   32    33     0     0     0
SMALL
USER_CHARGES

@<TRIPOS>ATOM
      1 C1         -0.0184    1.5028    0.0103 C.3       1 <0>        -0.0854
      2 C2          0.0021   -0.0041    0.0020 C.2       1 <0>         0.1978
      3 C3          0.0080   -0.8257   -1.1507 C.2       1 <0>        -0.0854
      4 C4          0.0279   -2.1439   -0.7125 C.2       1 <0>         0.3709
      5 N1          0.0336   -2.1107    0.6483 N.pl3     1 <0>        -0.3526
      6 N2          0.0230   -0.7718    1.0547 N.2       1 <0>        -0.2936
      7 C5          0.0512   -3.1833    1.4642 C.2       1 <0>         0.5645
      8 N3          0.0551   -3.0130    2.8011 N.pl3     1 <0>        -0.7606
      9 S1          0.0687   -4.7620    0.8023 S.2       1 <0>        -0.5023
     10 O1          0.0394   -3.2513   -1.4910 O.3       1 <0>        -0.4056
     11 N4         -0.0040   -0.4037   -2.4449 N.2       1 <0>        -0.1512
     12 N5          0.0034   -1.2657   -3.4045 N.2       1 <0>        -0.2146
     13 C6         -0.0087   -0.8416   -4.7050 C.ar      1 <0>         0.0628
     14 C7         -0.0232    0.5244   -4.9978 C.ar      1 <0>        -0.0468
     15 C8         -0.0354    0.9448   -6.3111 C.ar      1 <0>        -0.1829
     16 C9         -0.0337    0.0176   -7.3388 C.ar      1 <0>        -0.0374
     17 C10        -0.0197   -1.3367   -7.0576 C.ar      1 <0>        -0.1124
     18 C11        -0.0007   -1.7728   -5.7476 C.ar      1 <0>         0.0413
     19 Cl1         0.0246   -3.4727   -5.3963 Cl        1 <0>        -0.0216
     20 C12        -0.0511    2.4180   -6.6283 C.3       1 <0>         0.5111
     21 F1          1.2629    2.8861   -6.7347 F         1 <0>        -0.1724
     22 F2         -0.7202    2.6272   -7.8390 F         1 <0>        -0.1730
     23 F3         -0.7107    3.1082   -5.6057 F         1 <0>        -0.1730
     24 H1          1.0042    1.8801    0.0026 H         1 <0>         0.0977
     25 H2         -0.5455    1.8639   -0.8728 H         1 <0>         0.0976
     26 H3         -0.5286    1.8543    0.9071 H         1 <0>         0.0891
     27 H4          0.0452   -2.1185    3.1761 H         1 <0>         0.4145
     28 H5          0.9260   -3.5610   -1.7212 H         1 <0>         0.4152
     29 H6         -0.0253    1.2495   -4.1974 H         1 <0>         0.1582
     30 H7         -0.0436    0.3532   -8.3652 H         1 <0>         0.1527
     31 H8         -0.0192   -2.0545   -7.8646 H         1 <0>         0.1576
     32 H9          0.0677   -3.7850    3.3883 H         1 <0>         0.4396
@<TRIPOS>BOND
     1    1    2 1
     2    1   24 1
     3    1   25 1
     4    1   26 1
     5    2    6 2
     6    2    3 1
     7    3    4 2
     8    3   11 1
     9    4    5 1
    10    4   10 1
    11    5    6 1
    12    5    7 1
    13    7    8 1
    14    7    9 2
    15    8   27 1
    16    8   32 1
    17   10   28 1
    18   11   12 2
    19   12   13 1
    20   13   18 ar
    21   13   14 ar
    22   14   15 ar
    23   14   29 1
    24   15   16 ar
    25   15   20 1
    26   16   17 ar
    27   16   30 1
    28   17   18 ar
    29   17   31 1
    30   18   19 1
    31   20   21 1
    32   20   22 1
    33   20   23 1
@<TRIPOS>MOLECULE
ZINC54259914
   55    57     0     0     0
SMALL
USER_CHARGES

@<TRIPOS>ATOM
      1 C1          0.9316    2.2750    0.4611 C.3       1 <0>        -0.1504
      2 C2          0.5740    0.7987    0.2776 C.3       1 <0>        -0.1116
      3 H1          0.9715    0.4434   -0.6731 H         1 <0>         0.0963
      4 C3         -0.9487    0.6363    0.2878 C.3       1 <0>        -0.1276
      5 C4         -1.2943   -0.8518    0.1823 C.3       1 <0>        -0.1112
      6 H2         -2.3749   -0.9799    0.2449 H         1 <0>         0.1185
      7 C5         -0.6226   -1.6085    1.3302 C.3       1 <0>        -0.0128
      8 N1          0.8328   -1.4357    1.2496 N.4       1 <0>        -0.3791
      9 C6          1.1774   -0.0193    1.4214 C.3       1 <0>        -0.0164
     10 C7          1.4776   -2.2266    2.3064 C.3       1 <0>         0.0449
     11 C8          0.9631   -1.7680    3.6724 C.3       1 <0>        -0.1732
     12 C9          1.1480   -3.7074    2.1082 C.3       1 <0>        -0.1790
     13 C10         2.9931   -2.0279    2.2393 C.3       1 <0>         0.1026
     14 N2          3.4744   -2.3896    0.9037 N.am      1 <0>        -0.7518
     15 C11         4.7677   -2.1957    0.5780 C.2       1 <0>         0.5723
     16 O1          5.5347   -1.7209    1.3922 O.2       1 <0>        -0.5087
     17 C12         5.2543   -2.5614   -0.7725 C.ar      1 <0>        -0.0939
     18 C13         4.3616   -3.1041   -1.7098 C.ar      1 <0>        -0.1831
     19 C14         4.7847   -3.4482   -2.9574 C.ar      1 <0>        -0.0025
     20 C15         6.1270   -3.2607   -3.3165 C.ar      1 <0>        -0.2241
     21 C16         7.0410   -2.7128   -2.3786 C.ar      1 <0>         0.2212
     22 C17         6.5848   -2.3594   -1.1004 C.ar      1 <0>        -0.0635
     23 N3          8.3208   -2.5395   -2.7379 N.2       1 <0>        -0.5512
     24 C18         8.7344   -2.8730   -3.9509 C.2       1 <0>         0.5070
     25 N4          7.9098   -3.3944   -4.8743 N.pl3     1 <0>        -0.6007
     26 H3          8.2568   -3.6236   -5.7506 H         1 <0>         0.4236
     27 C19         6.6042   -3.6041   -4.5993 C.2       1 <0>         0.5032
     28 O2          5.7800   -4.1259   -5.5245 O.3       1 <0>        -0.6077
     29 S1         10.3797   -2.6305   -4.3571 S.2       1 <0>        -0.6805
     30 C20        -0.7916   -1.3994   -1.1550 C.3       1 <0>        -0.1733
     31 H4          2.0156    2.3897    0.4553 H         1 <0>         0.0698
     32 H5          0.5003    2.8573   -0.3531 H         1 <0>         0.0772
     33 H6          0.5339    2.6297    1.4119 H         1 <0>         0.0660
     34 H7         -1.3520    1.0391    1.2170 H         1 <0>         0.0821
     35 H8         -1.3780    1.1712   -0.5593 H         1 <0>         0.0945
     36 H9         -0.9823   -1.2176    2.2820 H         1 <0>         0.1328
     37 H10        -0.8667   -2.6684    1.2582 H         1 <0>         0.1329
     38 H11         2.2614    0.0944    1.4163 H         1 <0>         0.1334
     39 H12         0.7800    0.3375    2.3716 H         1 <0>         0.1328
     40 H13        -0.1166   -1.9095    3.7202 H         1 <0>         0.0882
     41 H14         1.4416   -2.3548    4.4565 H         1 <0>         0.1091
     42 H15         1.1979   -0.7130    3.8136 H         1 <0>         0.0854
     43 H16         1.5145   -4.0341    1.1350 H         1 <0>         0.0816
     44 H17         1.6265   -4.2942    2.8923 H         1 <0>         0.1115
     45 H18         0.0683   -3.8489    2.1560 H         1 <0>         0.0875
     46 H19         3.2320   -0.9837    2.4411 H         1 <0>         0.0979
     47 H20         3.4759   -2.6615    2.9833 H         1 <0>         0.1128
     48 H21         2.8621   -2.7687    0.2537 H         1 <0>         0.3949
     49 H22         3.3267   -3.2509   -1.4380 H         1 <0>         0.1105
     50 H23         4.0876   -3.8652   -3.6691 H         1 <0>         0.1364
     51 H24         7.2661   -1.9371   -0.3766 H         1 <0>         0.1483
     52 H25         0.2893   -1.2725   -1.2164 H         1 <0>         0.0520
     53 H26        -1.0378   -2.4587   -1.2295 H         1 <0>         0.0738
     54 H27        -1.2680   -0.8573   -1.9718 H         1 <0>         0.0859
     55 H28         1.1587   -1.7526    0.3489 H         1 <0>         0.4156
@<TRIPOS>BOND
     1    1    2 1
     2    1   31 1
     3    1   32 1
     4    1   33 1
     5    2    3 1
     6    2    9 1
     7    2    4 1
     8    4    5 1
     9    4   34 1
    10    4   35 1
    11    5    6 1
    12    5    7 1
    13    5   30 1
    14    7    8 1
    15    7   36 1
    16    7   37 1
    17    8    9 1
    18    8   10 1
    19    8   55 1
    20    9   38 1
    21    9   39 1
    22   10   11 1
    23   10   12 1
    24   10   13 1
    25   11   40 1
    26   11   41 1
    27   11   42 1
    28   12   43 1
    29   12   44 1
    30   12   45 1
    31   13   14 1
    32   13   46 1
    33   13   47 1
    34   14   15 am
    35   14   48 1
    36   15   16 2
    37   15   17 1
    38   17   22 ar
    39   17   18 ar
    40   18   19 ar
    41   18   49 1
    42   19   20 ar
    43   19   50 1
    44   20   27 2
    45   20   21 ar
    46   21   22 ar
    47   21   23 2
    48   22   51 1
    49   23   24 1
    50   24   25 1
    51   24   29 2
    52   25   26 1
    53   25   27 1
    54   27   28 1
    55   30   52 1
    56   30   53 1
    57   30   54 1
@<TRIPOS>MOLECULE
ZINC60751146
   49    52     0     0     0
SMALL
USER_CHARGES

@<TRIPOS>ATOM
      1 C1          0.6260    1.1869   -0.5130 C.3       1 <0>         0.0240
      2 O1          0.0207   -0.0060   -0.0102 O.3       1 <0>        -0.3067
      3 C2          0.6401   -0.6202    1.0328 C.ar      1 <0>         0.2123
      4 C3          1.8031   -0.0812    1.5635 C.ar      1 <0>        -0.2065
      5 C4          2.4323   -0.7041    2.6229 C.ar      1 <0>        -0.0221
      6 C5          1.9009   -1.8706    3.1571 C.ar      1 <0>         0.0948
      7 C6          0.7371   -2.4094    2.6256 C.ar      1 <0>        -0.0133
      8 C7          0.1058   -1.7823    1.5693 C.ar      1 <0>        -0.6912
      9 S1         -1.3749   -2.4624    0.8989 S.o2      1 <0>         2.7113
     10 O2         -1.1980   -2.5106   -0.5103 O.2       1 <0>        -0.9512
     11 O3         -1.6760   -3.6182    1.6688 O.2       1 <0>        -0.9651
     12 N1         -2.5883   -1.3728    1.1866 N.pl3     1 <0>        -1.2431
     13 N2          2.5391   -2.5035    4.2318 N.am      1 <0>        -0.6732
     14 C8          3.1859   -1.7693    5.1587 C.2       1 <0>         0.5232
     15 O4          3.1354   -0.5581    5.1164 O.2       1 <0>        -0.5148
     16 C9          3.9719   -2.4531    6.2476 C.3       1 <0>        -0.0954
     17 C10         3.0374   -3.3443    7.0682 C.3       1 <0>        -0.0776
     18 C11         3.8354   -4.0386    8.1738 C.3       1 <0>        -0.1066
     19 C12         4.4663   -2.9847    9.0860 C.3       1 <0>        -0.0880
     20 C13         3.3649   -2.1278    9.7132 C.3       1 <0>        -0.1091
     21 C14         2.5669   -1.4336    8.6077 C.3       1 <0>        -0.0867
     22 C15         1.9360   -2.4875    7.6955 C.3       1 <0>        -0.1119
     23 C16         3.5013   -0.5423    7.7871 C.3       1 <0>        -0.1206
     24 C17         4.6028   -1.3992    7.1598 C.3       1 <0>        -0.0631
     25 C18         5.4008   -2.0934    8.2654 C.3       1 <0>        -0.1094
     26 H1          1.6344    0.9635   -0.8615 H         1 <0>         0.0633
     27 H2          0.0327    1.5741   -1.3413 H         1 <0>         0.1102
     28 H3          0.6728    1.9328    0.2804 H         1 <0>         0.0624
     29 H4          2.2165    0.8258    1.1477 H         1 <0>         0.1434
     30 H5          3.3378   -0.2846    3.0357 H         1 <0>         0.1469
     31 H6          0.3233   -3.3166    3.0406 H         1 <0>         0.1548
     32 H7         -3.3381   -1.3090    0.5745 H         1 <0>         0.4219
     33 H8         -2.5492   -0.7984    1.9672 H         1 <0>         0.4162
     34 H9          2.5155   -3.4702    4.3088 H         1 <0>         0.4133
     35 H10         4.7566   -3.0635    5.8007 H         1 <0>         0.1011
     36 H11         2.5879   -4.0952    6.4183 H         1 <0>         0.0737
     37 H12         3.1697   -4.6735    8.7584 H         1 <0>         0.0688
     38 H13         4.6201   -4.6490    7.7269 H         1 <0>         0.0656
     39 H14         5.0348   -3.4792    9.8736 H         1 <0>         0.0721
     40 H15         2.6992   -2.7627   10.2979 H         1 <0>         0.0615
     41 H16         3.8144   -1.3770   10.3631 H         1 <0>         0.0626
     42 H17         1.7822   -0.8231    9.0546 H         1 <0>         0.0692
     43 H18         1.3675   -1.9929    6.9079 H         1 <0>         0.0595
     44 H19         1.2703   -3.1224    8.2801 H         1 <0>         0.0678
     45 H20         2.9329   -0.0477    6.9995 H         1 <0>         0.0885
     46 H21         3.9508    0.2085    8.4370 H         1 <0>         0.0603
     47 H22         5.2685   -0.7642    6.5752 H         1 <0>         0.0760
     48 H23         5.8502   -1.3426    8.9152 H         1 <0>         0.0677
     49 H24         6.1855   -2.7039    7.8185 H         1 <0>         0.0630
@<TRIPOS>BOND
     1    1    2 1
     2    1   26 1
     3    1   27 1
     4    1   28 1
     5    2    3 1
     6    3    8 ar
     7    3    4 ar
     8    4    5 ar
     9    4   29 1
    10    5    6 ar
    11    5   30 1
    12    6    7 ar
    13    6   13 1
    14    7    8 ar
    15    7   31 1
    16    8    9 1
    17    9   10 2
    18    9   11 2
    19    9   12 1
    20   12   32 1
    21   12   33 1
    22   13   14 am
    23   13   34 1
    24   14   15 2
    25   14   16 1
    26   16   24 1
    27   16   17 1
    28   16   35 1
    29   17   22 1
    30   17   18 1
    31   17   36 1
    32   18   19 1
    33   18   37 1
    34   18   38 1
    35   19   25 1
    36   19   20 1
    37   19   39 1
    38   20   21 1
    39   20   40 1
    40   20   41 1
    41   21   22 1
    42   21   23 1
    43   21   42 1
    44   22   43 1
    45   22   44 1
    46   23   24 1
    47   23   45 1
    48   23   46 1
    49   24   25 1
    50   24   47 1
    51   25   48 1
    52   25   49 1
@<TRIPOS>MOLECULE
ZINC65501261
   51    53     0     0     0
SMALL
USER_CHARGES

@<TRIPOS>ATOM
      1 C1         -0.0184    1.5028    0.0103 C.3       1 <0>        -0.0769
      2 C2          0.0021   -0.0041    0.0020 C.2       1 <0>        -0.0051
      3 C3         -1.0783   -0.8055    0.0027 C.2       1 <0>        -0.2080
      4 C4         -0.6011   -2.1363   -0.0068 C.2       1 <0>        -0.1900
      5 C5          0.7423   -2.0686   -0.0126 C.2       1 <0>         0.0062
      6 O1          1.1020   -0.7746   -0.0131 O.3       1 <0>        -0.1696
      7 C6          1.6840   -3.2450   -0.0226 C.3       1 <0>        -0.0809
      8 C7         -1.4371   -3.3901   -0.0093 C.3       1 <0>         0.2341
      9 C8         -1.6088   -3.8915    1.4260 C.3       1 <0>        -0.1610
     10 N1         -2.7522   -3.0990   -0.5855 N.am      1 <0>        -0.7350
     11 C9         -3.4725   -4.0863   -1.1538 C.2       1 <0>         0.7166
     12 O2         -3.0308   -5.2186   -1.1882 O.2       1 <0>        -0.5636
     13 N2         -4.6823   -3.8185   -1.6839 N.am      1 <0>        -0.5266
     14 N3         -5.1913   -2.5139   -1.6442 N.am      1 <0>        -0.5270
     15 C10        -6.4011   -2.2461   -2.1743 C.2       1 <0>         0.6139
     16 O3         -7.0515   -3.1376   -2.6874 O.2       1 <0>        -0.5155
     17 C11        -6.9336   -0.8810   -2.1328 C.2       1 <0>        -0.2642
     18 C12        -8.1401   -0.4008   -2.6081 C.2       1 <0>        -0.0441
     19 C13        -8.3880    0.9525   -2.4327 C.2       1 <0>        -0.1459
     20 C14        -7.4159    1.6775   -1.8082 C.2       1 <0>        -0.1826
     21 S1         -6.1982    0.5926   -1.4494 S.3       1 <0>         0.2031
     22 C15        -7.4470    3.1466   -1.5053 C.3       1 <0>        -0.0453
     23 C16        -8.5674    3.7897   -2.3340 C.3       1 <0>        -0.1105
     24 C17        -9.8398    2.9524   -2.1761 C.3       1 <0>        -0.0930
     25 C18        -9.6771    1.6189   -2.9062 C.3       1 <0>        -0.0530
     26 C19       -11.0269    3.7147   -2.7682 C.3       1 <0>        -0.1492
     27 H1          1.0042    1.8801    0.0026 H         1 <0>         0.0769
     28 H2         -0.5455    1.8639   -0.8728 H         1 <0>         0.0865
     29 H3         -0.5286    1.8543    0.9071 H         1 <0>         0.0870
     30 H4         -2.1119   -0.4924    0.0097 H         1 <0>         0.1432
     31 H5          1.9064   -3.5237   -1.0527 H         1 <0>         0.0850
     32 H6          2.6082   -2.9750    0.4883 H         1 <0>         0.0799
     33 H7          1.2186   -4.0873    0.4893 H         1 <0>         0.0914
     34 H8         -0.9410   -4.1564   -0.6049 H         1 <0>         0.1004
     35 H9         -2.1050   -3.1252    2.0216 H         1 <0>         0.0595
     36 H10        -2.2135   -4.7984    1.4242 H         1 <0>         0.0680
     37 H11        -0.6304   -4.1080    1.8547 H         1 <0>         0.0698
     38 H12        -3.1046   -2.1957   -0.5580 H         1 <0>         0.3899
     39 H13        -5.2007   -4.5291   -2.0928 H         1 <0>         0.4462
     40 H14        -4.6729   -1.8033   -1.2352 H         1 <0>         0.4169
     41 H15        -8.8552   -1.0486   -3.0931 H         1 <0>         0.1497
     42 H16        -7.6435    3.2978   -0.4438 H         1 <0>         0.0890
     43 H17        -6.4903    3.5960   -1.7715 H         1 <0>         0.0863
     44 H18        -8.7503    4.8033   -1.9771 H         1 <0>         0.0765
     45 H19        -8.2758    3.8169   -3.3839 H         1 <0>         0.0697
     46 H20       -10.0218    2.7662   -1.1177 H         1 <0>         0.0736
     47 H21        -9.6242    1.7946   -3.9806 H         1 <0>         0.0782
     48 H22       -10.5260    0.9733   -2.6810 H         1 <0>         0.0775
     49 H23       -10.8454    3.9050   -3.8261 H         1 <0>         0.0567
     50 H24       -11.9331    3.1196   -2.6564 H         1 <0>         0.0574
     51 H25       -11.1478    4.6628   -2.2441 H         1 <0>         0.0580
@<TRIPOS>BOND
     1    1    2 1
     2    1   27 1
     3    1   28 1
     4    1   29 1
     5    2    6 1
     6    2    3 2
     7    3    4 1
     8    3   30 1
     9    4    5 2
    10    4    8 1
    11    5    6 1
    12    5    7 1
    13    7   31 1
    14    7   32 1
    15    7   33 1
    16    8    9 1
    17    8   10 1
    18    8   34 1
    19    9   35 1
    20    9   36 1
    21    9   37 1
    22   10   11 am
    23   10   38 1
    24   11   12 2
    25   11   13 am
    26   13   14 1
    27   13   39 1
    28   14   15 am
    29   14   40 1
    30   15   16 2
    31   15   17 1
    32   17   21 1
    33   17   18 2
    34   18   19 1
    35   18   41 1
    36   19   25 1
    37   19   20 2
    38   20   21 1
    39   20   22 1
    40   22   23 1
    41   22   42 1
    42   22   43 1
    43   23   24 1
    44   23   44 1
    45   23   45 1
    46   24   25 1
    47   24   26 1
    48   24   46 1
    49   25   47 1
    50   25   48 1
    51   26   49 1
    52   26   50 1
    53   26   51 1
@<TRIPOS>MOLECULE
ZINC05785627
   46    48     0     0     0
SMALL
USER_CHARGES
2-(1,2-dihydroxypentyl)-1-hydroxy-8-methoxy-anthracene-9,10-dione
@<TRIPOS>ATOM
      1 C1          2.1926   10.3081    1.3911 C.3       1 <0>        -0.1543
      2 C2          2.1569    8.8094    1.6971 C.3       1 <0>        -0.1210
      3 C3          2.3042    8.0194    0.3951 C.3       1 <0>        -0.1488
      4 C4          2.2685    6.5208    0.7011 C.3       1 <0>         0.0836
      5 H1          3.0314    6.2830    1.4424 H         1 <0>         0.1031
      6 C5          2.5400    5.7318   -0.5813 C.3       1 <0>         0.1177
      7 H2          1.7771    5.9695   -1.3226 H         1 <0>         0.1220
      8 C6          2.5048    4.2557   -0.2799 C.ar      1 <0>        -0.1195
      9 C7          3.6785    3.5833   -0.0073 C.ar      1 <0>        -0.0824
     10 C8          3.6649    2.2256    0.2715 C.ar      1 <0>        -0.0713
     11 C9          2.4614    1.5304    0.2780 C.ar      1 <0>        -0.1081
     12 C10         1.2595    2.2103    0.0019 C.ar      1 <0>        -0.1423
     13 C11         1.2881    3.5786   -0.2778 C.ar      1 <0>         0.1822
     14 O1          0.1374    4.2437   -0.5462 O.3       1 <0>        -0.4785
     15 C12        -0.0179    1.4715    0.0101 C.2       1 <0>         0.4349
     16 O2         -1.0754    2.0719    0.0184 O.2       1 <0>        -0.4009
     17 C13         0.0021   -0.0041    0.0020 C.ar      1 <0>        -0.1592
     18 C14         1.2025   -0.6878    0.2772 C.ar      1 <0>        -0.0846
     19 C15         1.2228   -2.0771    0.2688 C.ar      1 <0>        -0.1050
     20 C16         0.0635   -2.7849   -0.0096 C.ar      1 <0>        -0.0570
     21 C17        -1.1157   -2.1219   -0.2794 C.ar      1 <0>        -0.1895
     22 C18        -1.1581   -0.7297   -0.2764 C.ar      1 <0>         0.1786
     23 O3         -2.3197   -0.0825   -0.5420 O.3       1 <0>        -0.2854
     24 C19        -3.4648   -0.8916   -0.8178 C.3       1 <0>         0.0196
     25 C20         2.4309    0.0812    0.5721 C.2       1 <0>         0.4397
     26 O4          3.4024   -0.4703    1.0503 O.2       1 <0>        -0.4209
     27 O5          3.8272    6.0829   -1.0931 O.3       1 <0>        -0.5408
     28 O6          0.9813    6.1696    1.2129 O.3       1 <0>        -0.5534
     29 H3          1.3735   10.5611    0.7180 H         1 <0>         0.0537
     30 H4          2.0877   10.8709    2.3187 H         1 <0>         0.0550
     31 H5          3.1421   10.5600    0.9187 H         1 <0>         0.0538
     32 H6          1.2074    8.5576    2.1695 H         1 <0>         0.0679
     33 H7          2.9760    8.5564    2.3702 H         1 <0>         0.0603
     34 H8          3.2536    8.2713   -0.0773 H         1 <0>         0.0822
     35 H9          1.4850    8.2724   -0.2780 H         1 <0>         0.0688
     36 H10         4.6159    4.1196   -0.0108 H         1 <0>         0.1404
     37 H11         4.5889    1.7082    0.4833 H         1 <0>         0.1478
     38 H12        -0.2941    4.6145    0.2358 H         1 <0>         0.4002
     39 H13         2.1411   -2.6054    0.4787 H         1 <0>         0.1456
     40 H14         0.0837   -3.8647   -0.0149 H         1 <0>         0.1425
     41 H15        -2.0113   -2.6857   -0.4947 H         1 <0>         0.1436
     42 H16        -3.2690   -1.5125   -1.6920 H         1 <0>         0.0599
     43 H17        -3.6745   -1.5292    0.0411 H         1 <0>         0.0604
     44 H18        -4.3244   -0.2504   -1.0128 H         1 <0>         0.1077
     45 H19         4.5560    5.8985   -0.4848 H         1 <0>         0.3762
     46 H20         0.2525    6.3541    0.6046 H         1 <0>         0.3755
@<TRIPOS>BOND
     1    1    2 1
     2    1   29 1
     3    1   30 1
     4    1   31 1
     5    2    3 1
     6    2   32 1
     7    2   33 1
     8    3    4 1
     9    3   34 1
    10    3   35 1
    11    4    5 1
    12    4    6 1
    13    4   28 1
    14    6    7 1
    15    6    8 1
    16    6   27 1
    17    8   13 ar
    18    8    9 ar
    19    9   10 ar
    20    9   36 1
    21   10   11 ar
    22   10   37 1
    23   11   25 1
    24   11   12 ar
    25   12   13 ar
    26   12   15 1
    27   13   14 1
    28   14   38 1
    29   15   16 2
    30   15   17 1
    31   17   22 ar
    32   17   18 ar
    33   18   19 ar
    34   18   25 1
    35   19   20 ar
    36   19   39 1
    37   20   21 ar
    38   20   40 1
    39   21   22 ar
    40   21   41 1
    41   22   23 1
    42   23   24 1
    43   24   42 1
    44   24   43 1
    45   24   44 1
    46   25   26 2
    47   27   45 1
    48   28   46 1
@<TRIPOS>MOLECULE
ZINC33008175
   41    43     0     0     0
SMALL
USER_CHARGES
N-[6-[(3-methylsulfanylphenyl)carbamoylamino]-1,3-benzothiazol-2-yl]acetamide
@<TRIPOS>ATOM
      1 C1         -1.1150   18.3009    2.9923 C.3       1 <0>        -0.1659
      2 C2         -1.4394   16.8546    3.2644 C.2       1 <0>         0.5073
      3 O1         -2.4459   16.5635    3.8751 O.2       1 <0>        -0.4779
      4 N1         -0.6110   15.8847    2.8290 N.am      1 <0>        -0.6336
      5 C3         -0.9094   14.5546    3.0793 C.2       1 <0>         0.3719
      6 N2         -1.9386   14.0479    3.7160 N.2       1 <0>        -0.5086
      7 C4         -2.1039   12.7174    3.8875 C.ar      1 <0>         0.0888
      8 C5         -3.1595   12.0473    4.5483 C.ar      1 <0>        -0.0465
      9 C6         -3.1802   10.6907    4.6359 C.ar      1 <0>        -0.1253
     10 C7         -2.1695    9.9084    4.0818 C.ar      1 <0>         0.1789
     11 C8         -1.1133   10.5303    3.4290 C.ar      1 <0>        -0.0631
     12 C9         -1.0922   11.8994    3.3348 C.ar      1 <0>        -0.1299
     13 S1          0.0101   13.0935    2.6168 S.3       1 <0>         0.0054
     14 N3         -2.2150    8.5119    4.1869 N.am      1 <0>        -0.6889
     15 C10        -1.7543    7.7449    3.1789 C.2       1 <0>         0.7067
     16 O2         -1.2221    8.2621    2.2157 O.2       1 <0>        -0.5562
     17 N4         -1.8836    6.4047    3.2386 N.am      1 <0>        -0.6927
     18 C11        -1.3204    5.6023    2.2400 C.ar      1 <0>         0.1843
     19 C12        -0.7916    4.3586    2.5631 C.ar      1 <0>        -0.1513
     20 C13        -0.2361    3.5650    1.5780 C.ar      1 <0>        -0.0800
     21 C14        -0.2082    4.0026    0.2680 C.ar      1 <0>        -0.1512
     22 C15        -0.7307    5.2479   -0.0613 C.ar      1 <0>        -0.0650
     23 C16        -1.2901    6.0475    0.9268 C.ar      1 <0>        -0.1029
     24 S2         -0.6899    5.8082   -1.7314 S.3       1 <0>        -0.1104
     25 C17         0.1157    4.4534   -2.6292 C.3       1 <0>        -0.1492
     26 H1         -0.1711   18.3657    2.4312 H         1 <0>         0.0830
     27 H2         -1.0123   18.8393    3.9460 H         1 <0>         0.1044
     28 H3         -1.9248   18.7534    2.4011 H         1 <0>         0.1045
     29 H4          0.3019   16.1488    2.2750 H         1 <0>         0.4569
     30 H5         -3.9605   12.6215    4.9901 H         1 <0>         0.1385
     31 H6         -4.0000   10.2080    5.1471 H         1 <0>         0.1376
     32 H7         -0.3175    9.9419    2.9966 H         1 <0>         0.1501
     33 H8         -2.6267    8.0416    5.0921 H         1 <0>         0.4353
     34 H9         -2.4318    5.9416    4.0723 H         1 <0>         0.4335
     35 H10        -0.8151    4.0117    3.5856 H         1 <0>         0.1287
     36 H11         0.1739    2.5986    1.8321 H         1 <0>         0.1304
     37 H12         0.2234    3.3783   -0.5004 H         1 <0>         0.1242
     38 H13        -1.7002    7.0139    0.6733 H         1 <0>         0.1464
     39 H14         0.1885    4.7125   -3.6958 H         1 <0>         0.1113
     40 H15        -0.4774    3.5341   -2.5148 H         1 <0>         0.0852
     41 H16         1.1245    4.2921   -2.2214 H         1 <0>         0.0853
@<TRIPOS>BOND
     1    1    2 1
     2    1   26 1
     3    1   27 1
     4    1   28 1
     5    2    3 2
     6    2    4 am
     7    4    5 1
     8    4   29 1
     9    5   13 1
    10    5    6 2
    11    6    7 1
    12    7   12 ar
    13    7    8 ar
    14    8    9 ar
    15    8   30 1
    16    9   10 ar
    17    9   31 1
    18   10   11 ar
    19   10   14 1
    20   11   12 ar
    21   11   32 1
    22   12   13 1
    23   14   15 am
    24   14   33 1
    25   15   16 2
    26   15   17 am
    27   17   18 1
    28   17   34 1
    29   18   23 ar
    30   18   19 ar
    31   19   20 ar
    32   19   35 1
    33   20   21 ar
    34   20   36 1
    35   21   22 ar
    36   21   37 1
    37   22   23 ar
    38   22   24 1
    39   23   38 1
    40   24   25 1
    41   25   39 1
    42   25   40 1
    43   25   41 1
@<TRIPOS>MOLECULE
ZINC51756366
   31    32     0     0     0
SMALL
USER_CHARGES

@<TRIPOS>ATOM
      1 C1         -0.0158    1.3139    0.0093 C.2       1 <0>         0.0331
      2 C2          1.1859    1.9456    0.0012 C.2       1 <0>        -0.2242
      3 S1          2.2937    0.5453   -0.0169 S.3       1 <0>         0.1138
      4 C3          1.1295   -0.6703   -0.0123 C.2       1 <0>         0.0476
      5 N1          0.0021   -0.0041    0.0020 N.2       1 <0>        -0.5104
      6 C4          1.3347   -2.1632   -0.0223 C.3       1 <0>        -0.0429
      7 C5          1.3904   -2.6607   -1.4681 C.3       1 <0>         0.1424
      8 N2          1.5899   -4.1120   -1.4778 N.am      1 <0>        -0.7438
      9 C6          1.6705   -4.7734   -2.6494 C.2       1 <0>         0.7163
     10 O1          1.5777   -4.1655   -3.6983 O.2       1 <0>        -0.5597
     11 N3          1.8541   -6.1085   -2.6583 N.am      1 <0>        -0.5225
     12 N4          1.9610   -6.8090   -1.4497 N.pl3     1 <0>        -0.5105
     13 C7          2.1505   -8.1873   -1.4589 C.ar      1 <0>         0.4417
     14 C8          2.2502   -8.8776   -0.2543 C.ar      1 <0>        -0.1410
     15 C9          2.4381  -10.2488   -0.2773 C.ar      1 <0>         0.0085
     16 C10         2.5204  -10.8860   -1.5089 C.ar      1 <0>        -0.1256
     17 C11         2.4129  -10.1375   -2.6666 C.ar      1 <0>         0.2449
     18 N5          2.2288   -8.8307   -2.6132 N.ar      1 <0>        -0.5106
     19 Cl1         2.5152  -10.9262   -4.2097 Cl        1 <0>         0.0121
     20 Cl2         2.7562  -12.6038   -1.5937 Cl        1 <0>        -0.0207
     21 Cl3         2.1408   -8.0300    1.2567 Cl        1 <0>        -0.0322
     22 H1         -0.9439    1.8660    0.0255 H         1 <0>         0.1750
     23 H2          1.4098    3.0021    0.0047 H         1 <0>         0.1988
     24 H3          2.2708   -2.4047    0.4813 H         1 <0>         0.0991
     25 H4          0.5075   -2.6472    0.4969 H         1 <0>         0.1059
     26 H5          0.4544   -2.4193   -1.9717 H         1 <0>         0.0816
     27 H6          2.2177   -2.1768   -1.9873 H         1 <0>         0.0779
     28 H7          1.6640   -4.5970   -0.6410 H         1 <0>         0.3915
     29 H8          1.9121   -6.5845   -3.5015 H         1 <0>         0.4477
     30 H9          1.9030   -6.3331   -0.6065 H         1 <0>         0.4348
     31 H10         2.5194  -10.8105    0.6415 H         1 <0>         0.1713
@<TRIPOS>BOND
     1    1    5 1
     2    1    2 2
     3    1   22 1
     4    2    3 1
     5    2   23 1
     6    3    4 1
     7    4    5 2
     8    4    6 1
     9    6    7 1
    10    6   24 1
    11    6   25 1
    12    7    8 1
    13    7   26 1
    14    7   27 1
    15    8    9 am
    16    8   28 1
    17    9   10 2
    18    9   11 am
    19   11   12 1
    20   11   29 1
    21   12   13 1
    22   12   30 1
    23   13   18 ar
    24   13   14 ar
    25   14   15 ar
    26   14   21 1
    27   15   16 ar
    28   15   31 1
    29   16   17 ar
    30   16   20 1
    31   17   18 ar
    32   17   19 1
@<TRIPOS>MOLECULE
ZINC62372896
   41    42     0     0     0
SMALL
USER_CHARGES

@<TRIPOS>ATOM
      1 C1          1.6226   -2.3505    2.2118 C.3       1 <0>        -0.1260
      2 C2          0.7958   -1.8488    1.0560 C.ar      1 <0>        -0.0338
      3 C3          0.7940   -2.5376   -0.1414 C.ar      1 <0>        -0.1178
      4 C4          0.0317   -2.0752   -1.2056 C.ar      1 <0>         0.1871
      5 C5         -0.7272   -0.9208   -1.0631 C.ar      1 <0>        -0.1497
      6 C6         -0.7217   -0.2361    0.1361 C.ar      1 <0>        -0.0641
      7 C7          0.0349   -0.7022    1.1969 C.ar      1 <0>        -0.1127
      8 Br1         0.0337    0.2337    2.8401 Br        1 <0>        -0.0485
      9 N1          0.0284   -2.7709   -2.4203 N.am      1 <0>        -0.6837
     10 C8          0.1488   -4.1133   -2.4283 C.2       1 <0>         0.7100
     11 O1          0.1630   -4.7287   -1.3798 O.2       1 <0>        -0.5678
     12 N2          0.2534   -4.7735   -3.5986 N.am      1 <0>        -0.7240
     13 C9          0.3843   -6.2326   -3.6074 C.3       1 <0>         0.1460
     14 C10        -1.0052   -6.8697   -3.5405 C.3       1 <0>        -0.1626
     15 C11         1.0758   -6.6674   -4.8738 C.2       1 <0>         0.5157
     16 O2          1.4249   -5.8399   -5.6888 O.2       1 <0>        -0.5309
     17 N3          1.3062   -7.9757   -5.1007 N.am      1 <0>        -0.7219
     18 C12         1.9785   -8.3984   -6.3319 C.3       1 <0>         0.2044
     19 C13         2.1131   -9.8993   -6.3408 C.2       1 <0>        -0.0466
     20 C14         1.2191  -10.7663   -6.8494 C.2       1 <0>        -0.1779
     21 C15         1.7442  -12.0630   -6.6454 C.2       1 <0>        -0.2186
     22 C16         2.9277  -11.9109   -6.0243 C.2       1 <0>        -0.0234
     23 O3          3.1486  -10.5980   -5.8476 O.3       1 <0>        -0.1711
     24 H1          1.0276   -3.0382    2.8127 H         1 <0>         0.0805
     25 H2          2.5027   -2.8687    1.8310 H         1 <0>         0.0727
     26 H3          1.9356   -1.5073    2.8276 H         1 <0>         0.0781
     27 H4          1.3853   -3.4348   -0.2497 H         1 <0>         0.1447
     28 H5         -1.3208   -0.5587   -1.8895 H         1 <0>         0.1347
     29 H6         -1.3114    0.6618    0.2474 H         1 <0>         0.1374
     30 H7         -0.0605   -2.2869   -3.2562 H         1 <0>         0.4113
     31 H8          0.2421   -4.2825   -4.4352 H         1 <0>         0.4089
     32 H9          0.9713   -6.5499   -2.7455 H         1 <0>         0.1200
     33 H10        -1.5923   -6.5524   -4.4023 H         1 <0>         0.0659
     34 H11        -0.9078   -7.9553   -3.5470 H         1 <0>         0.0738
     35 H12        -1.5053   -6.5552   -2.6245 H         1 <0>         0.0789
     36 H13         1.0270   -8.6376   -4.4489 H         1 <0>         0.4077
     37 H14         1.3914   -8.0811   -7.1937 H         1 <0>         0.1030
     38 H15         2.9683   -7.9445   -6.3795 H         1 <0>         0.0887
     39 H16         0.2801  -10.5192   -7.3223 H         1 <0>         0.1519
     40 H17         1.2834  -12.9966   -6.9327 H         1 <0>         0.1525
     41 H18         3.5898  -12.7090   -5.7226 H         1 <0>         0.2069
@<TRIPOS>BOND
     1    1    2 1
     2    1   24 1
     3    1   25 1
     4    1   26 1
     5    2    7 ar
     6    2    3 ar
     7    3    4 ar
     8    3   27 1
     9    4    5 ar
    10    4    9 1
    11    5    6 ar
    12    5   28 1
    13    6    7 ar
    14    6   29 1
    15    7    8 1
    16    9   10 am
    17    9   30 1
    18   10   11 2
    19   10   12 am
    20   12   13 1
    21   12   31 1
    22   13   14 1
    23   13   15 1
    24   13   32 1
    25   14   33 1
    26   14   34 1
    27   14   35 1
    28   15   16 2
    29   15   17 am
    30   17   18 1
    31   17   36 1
    32   18   19 1
    33   18   37 1
    34   18   38 1
    35   19   23 1
    36   19   20 2
    37   20   21 1
    38   20   39 1
    39   21   22 2
    40   21   40 1
    41   22   23 1
    42   22   41 1
@<TRIPOS>MOLECULE
ZINC66240968
   48    50     0     0     0
SMALL
USER_CHARGES

@<TRIPOS>ATOM
      1 C1         -0.0187    1.5258    0.0104 C.3       1 <0>        -0.1423
      2 C2          0.0021   -0.0041    0.0020 C.3       1 <0>        -0.0737
      3 C3          0.7421   -0.5109    1.2415 C.3       1 <0>        -0.1509
      4 C4         -1.4333   -0.5336    0.0129 C.3       1 <0>        -0.1336
      5 C5          0.7182   -0.4975   -1.2568 C.3       1 <0>         0.2437
      6 H1          0.1910   -0.1364   -2.1398 H         1 <0>         0.1116
      7 C6          2.1320    0.0241   -1.2675 C.2       1 <0>        -0.1548
      8 C7          2.6460    1.0833   -1.9393 C.2       1 <0>        -0.1390
      9 C8          3.9884    1.3804   -1.7963 C.2       1 <0>        -0.1559
     10 C9          4.7511    0.6039   -0.9884 C.2       1 <0>        -0.1675
     11 S1          3.5628   -0.5878   -0.3925 S.3       1 <0>         0.0397
     12 N1          0.7381   -1.9623   -1.2648 N.am      1 <0>        -0.7190
     13 C10        -0.3152   -2.6479   -1.7518 C.2       1 <0>         0.5642
     14 O1         -1.2818   -2.0507   -2.1843 O.2       1 <0>        -0.5216
     15 C11        -0.2952   -4.1241   -1.7599 C.ar      1 <0>        -0.1387
     16 C12         0.8125   -4.8122   -1.2578 C.ar      1 <0>        -0.0606
     17 C13         0.8276   -6.1891   -1.2665 C.ar      1 <0>        -0.1119
     18 C14        -0.2580   -6.8949   -1.7743 C.ar      1 <0>         0.1848
     19 C15        -1.3622   -6.2133   -2.2748 C.ar      1 <0>        -0.1553
     20 C16        -1.3862   -4.8365   -2.2643 C.ar      1 <0>        -0.0282
     21 N2         -0.2390   -8.2921   -1.7819 N.pl3     1 <0>        -0.3487
     22 C17        -1.3128   -9.1033   -1.5949 C.2       1 <0>         0.4337
     23 C18        -0.8521  -10.4141   -1.6808 C.2       1 <0>        -0.2548
     24 C19         0.5394  -10.3495   -1.9265 C.2       1 <0>         0.1432
     25 N3          0.8879   -9.0950   -1.9895 N.2       1 <0>        -0.2870
     26 C20        -1.6384  -11.6033   -1.5459 C.1       1 <0>         0.2927
     27 N4         -2.2621  -12.5467   -1.4389 N.1       1 <0>        -0.4365
     28 N5         -2.6142   -8.7033   -1.3629 N.pl3     1 <0>        -0.8318
     29 H2          1.0039    1.9031    0.0027 H         1 <0>         0.0592
     30 H3         -0.5459    1.8868   -0.8726 H         1 <0>         0.0582
     31 H4         -0.5289    1.8773    0.9072 H         1 <0>         0.0611
     32 H5          0.2319   -0.1594    2.1383 H         1 <0>         0.0605
     33 H6          0.7568   -1.6008    1.2356 H         1 <0>         0.0540
     34 H7          1.7647   -0.1336    1.2338 H         1 <0>         0.0637
     35 H8         -1.9605   -0.1726   -0.8702 H         1 <0>         0.0658
     36 H9         -1.4185   -1.6235    0.0069 H         1 <0>         0.0539
     37 H10        -1.9435   -0.1821    0.9097 H         1 <0>         0.0522
     38 H11         2.0163    1.6858   -2.5771 H         1 <0>         0.1354
     39 H12         4.4231    2.2185   -2.3206 H         1 <0>         0.1366
     40 H13         5.8036    0.6869   -0.7611 H         1 <0>         0.1872
     41 H14         1.5093   -2.4388   -0.9197 H         1 <0>         0.3998
     42 H15         1.6559   -4.2647   -0.8638 H         1 <0>         0.1365
     43 H16         1.6836   -6.7215   -0.8790 H         1 <0>         0.1466
     44 H17        -2.2034   -6.7644   -2.6683 H         1 <0>         0.1383
     45 H18        -2.2457   -4.3078   -2.6494 H         1 <0>         0.1509
     46 H19         1.2000  -11.1955   -2.0455 H         1 <0>         0.2033
     47 H20        -2.8311   -7.7588   -1.3208 H         1 <0>         0.4108
     48 H21        -3.3113   -9.3669   -1.2421 H         1 <0>         0.4243
@<TRIPOS>BOND
     1    1    2 1
     2    1   29 1
     3    1   30 1
     4    1   31 1
     5    2    3 1
     6    2    4 1
     7    2    5 1
     8    3   32 1
     9    3   33 1
    10    3   34 1
    11    4   35 1
    12    4   36 1
    13    4   37 1
    14    5    6 1
    15    5    7 1
    16    5   12 1
    17    7   11 1
    18    7    8 2
    19    8    9 1
    20    8   38 1
    21    9   10 2
    22    9   39 1
    23   10   11 1
    24   10   40 1
    25   12   13 am
    26   12   41 1
    27   13   14 2
    28   13   15 1
    29   15   20 ar
    30   15   16 ar
    31   16   17 ar
    32   16   42 1
    33   17   18 ar
    34   17   43 1
    35   18   19 ar
    36   18   21 1
    37   19   20 ar
    38   19   44 1
    39   20   45 1
    40   21   25 1
    41   21   22 1
    42   22   23 2
    43   22   28 1
    44   23   24 1
    45   23   26 1
    46   24   25 2
    47   24   46 1
    48   26   27 3
    49   28   47 1
    50   28   48 1
@<TRIPOS>MOLECULE
ZINC20159611
   35    36     0     0     0
SMALL
USER_CHARGES
2,5-dichloro-N-[1-(3,5-dihydroxyphenyl)ethylideneamino]benzenesulfonamide
@<TRIPOS>ATOM
      1 C1         -1.3854    6.0628    0.0474 C.3       1 <0>        -0.1625
      2 C2         -0.0702    5.3271    0.0314 C.2       1 <0>         0.1485
      3 N1          1.0444    5.9910    0.0251 N.2       1 <0>        -0.2134
      4 N2          1.0254    7.3919    0.0333 N.pl3     1 <0>        -0.9609
      5 S1          2.4481    8.2393    0.0254 S.o2      1 <0>         2.7170
      6 O1          2.1030    9.6111   -0.1093 O.2       1 <0>        -0.9418
      7 O2          3.2178    7.7509    1.1154 O.2       1 <0>        -0.9176
      8 C3          3.3133    7.7912   -1.4427 C.ar      1 <0>        -0.6637
      9 C4          3.5401    8.7351   -2.4266 C.ar      1 <0>        -0.0014
     10 C5          4.2240    8.3846   -3.5769 C.ar      1 <0>        -0.0586
     11 C6          4.6717    7.0864   -3.7472 C.ar      1 <0>        -0.0397
     12 C7          4.4399    6.1413   -2.7661 C.ar      1 <0>        -0.1194
     13 C8          3.7605    6.4933   -1.6132 C.ar      1 <0>         0.0579
     14 Cl1         3.4698    5.3061   -0.3803 Cl        1 <0>         0.0050
     15 Cl2         4.5146    9.5717   -4.8097 Cl        1 <0>        -0.0463
     16 C9         -0.0502    3.8522    0.0228 C.ar      1 <0>         0.0329
     17 C10         1.1670    3.1684    0.0079 C.ar      1 <0>        -0.1713
     18 C11         1.1808    1.7837    0.0004 C.ar      1 <0>         0.1975
     19 C12        -0.0126    1.0758    0.0080 C.ar      1 <0>        -0.2452
     20 C13        -1.2247    1.7510    0.0174 C.ar      1 <0>         0.1972
     21 C14        -1.2485    3.1356    0.0299 C.ar      1 <0>        -0.2323
     22 O3         -2.3905    1.0524    0.0191 O.3       1 <0>        -0.5066
     23 O4          2.3650    1.1171   -0.0141 O.3       1 <0>        -0.5022
     24 H1         -2.2117    5.3367    0.0508 H         1 <0>         0.0915
     25 H2         -1.4603    6.6994   -0.8465 H         1 <0>         0.0857
     26 H3         -1.4441    6.6893    0.9497 H         1 <0>         0.0866
     27 H4          0.1789    7.8654    0.0436 H         1 <0>         0.4049
     28 H5          3.1871    9.7473   -2.2955 H         1 <0>         0.1625
     29 H6          5.2020    6.8117   -4.6470 H         1 <0>         0.1531
     30 H7          4.7887    5.1279   -2.8993 H         1 <0>         0.1550
     31 H8          2.0964    3.7186    0.0020 H         1 <0>         0.1378
     32 H9          0.0021   -0.0041    0.0020 H         1 <0>         0.1357
     33 H10        -2.1924    3.6602    0.0413 H         1 <0>         0.1378
     34 H11        -3.3519    1.5868    0.0266 H         1 <0>         0.4378
     35 H12         2.3770    0.0172   -0.0201 H         1 <0>         0.4386
@<TRIPOS>BOND
     1    1    2 1
     2    1   24 1
     3    1   25 1
     4    1   26 1
     5    2    3 2
     6    2   16 1
     7    3    4 1
     8    4    5 1
     9    4   27 1
    10    5    6 2
    11    5    7 2
    12    5    8 1
    13    8   13 ar
    14    8    9 ar
    15    9   10 ar
    16    9   28 1
    17   10   11 ar
    18   10   15 1
    19   11   12 ar
    20   11   29 1
    21   12   13 ar
    22   12   30 1
    23   13   14 1
    24   16   21 ar
    25   16   17 ar
    26   17   18 ar
    27   17   31 1
    28   18   19 ar
    29   18   23 1
    30   19   20 ar
    31   19   32 1
    32   20   21 ar
    33   20   22 1
    34   21   33 1
    35   22   34 1
    36   23   35 1
@<TRIPOS>MOLECULE
ZINC42611375
   42    43     0     0     0
SMALL
USER_CHARGES

@<TRIPOS>ATOM
      1 C1         -1.7135    0.1646   -0.4557 C.3       1 <0>        -0.1647
      2 C2         -0.9857   -1.0468    0.1305 C.3       1 <0>        -0.0874
      3 H1         -0.6011   -1.6666   -0.6794 H         1 <0>         0.0871
      4 C3         -1.9599   -1.8650    0.9804 C.3       1 <0>        -0.1587
      5 C4         -1.2320   -3.0764    1.5667 C.3       1 <0>        -0.1181
      6 C5         -0.0697   -2.5995    2.4400 C.3       1 <0>        -0.1197
      7 C6          0.9045   -1.7813    1.5901 C.3       1 <0>        -0.1581
      8 C7          0.1766   -0.5699    1.0038 C.3       1 <0>         0.1576
      9 H2          0.8707    0.0130    0.3983 H         1 <0>         0.0709
     10 N1         -0.3403    0.2631    2.0924 N.pl3     1 <0>        -0.9883
     11 C8         -1.7842    0.3544    2.3228 C.3       1 <0>         0.0570
     12 S1          0.7076    1.1017    3.0626 S.o2      1 <0>         2.6952
     13 O1          0.1139    1.1532    4.3526 O.2       1 <0>        -0.9434
     14 O2          1.9978    0.5498    2.8393 O.2       1 <0>        -0.9564
     15 C9          0.7582    2.7585    2.4650 C.ar      1 <0>        -0.7966
     16 C10         0.2797    3.7987    3.2414 C.ar      1 <0>         0.0970
     17 C11         0.3393    5.0890    2.7304 C.ar      1 <0>        -0.2289
     18 C12         0.8706    5.2940    1.4718 C.ar      1 <0>         0.2414
     19 N2          1.3192    4.2819    0.7539 N.ar      1 <0>        -0.5233
     20 C13         1.2852    3.0388    1.2087 C.ar      1 <0>         0.5062
     21 N3          1.7753    2.0033    0.4206 N.pl3     1 <0>        -0.5603
     22 N4          2.1875    2.2539   -0.8574 N.3       1 <0>        -0.5912
     23 Br1        -0.3007    6.5496    3.7468 Br        1 <0>        -0.0239
     24 H3         -1.2712    0.4238   -1.4176 H         1 <0>         0.0594
     25 H4         -2.7675   -0.0766   -0.5937 H         1 <0>         0.0635
     26 H5         -1.6205    1.0096    0.2265 H         1 <0>         0.0685
     27 H6         -2.3445   -1.2452    1.7904 H         1 <0>         0.1025
     28 H7         -2.7879   -2.2047    0.3583 H         1 <0>         0.0661
     29 H8         -1.9260   -3.6593    2.1722 H         1 <0>         0.0637
     30 H9         -0.8474   -3.6962    0.7567 H         1 <0>         0.0608
     31 H10        -0.4543   -1.9797    3.2499 H         1 <0>         0.0631
     32 H11         0.4488   -3.4625    2.8576 H         1 <0>         0.0658
     33 H12         1.7325   -1.4415    2.2122 H         1 <0>         0.0902
     34 H13         1.2891   -2.4011    0.7801 H         1 <0>         0.0806
     35 H14        -2.0756   -0.3621    3.0908 H         1 <0>         0.0706
     36 H15        -2.0367    1.3624    2.6517 H         1 <0>         0.0650
     37 H16        -2.3146    0.1307    1.3972 H         1 <0>         0.1183
     38 H17        -0.1313    3.6117    4.2225 H         1 <0>         0.1634
     39 H18         0.9191    6.2954    1.0703 H         1 <0>         0.1762
     40 H19         1.8245    1.1030    0.7784 H         1 <0>         0.4134
     41 H20         2.8965    2.9715   -0.8745 H         1 <0>         0.3537
     42 H21         2.5158    1.4104   -1.3033 H         1 <0>         0.3619
@<TRIPOS>BOND
     1    1    2 1
     2    1   24 1
     3    1   25 1
     4    1   26 1
     5    2    3 1
     6    2    8 1
     7    2    4 1
     8    4    5 1
     9    4   27 1
    10    4   28 1
    11    5    6 1
    12    5   29 1
    13    5   30 1
    14    6    7 1
    15    6   31 1
    16    6   32 1
    17    7    8 1
    18    7   33 1
    19    7   34 1
    20    8    9 1
    21    8   10 1
    22   10   11 1
    23   10   12 1
    24   11   35 1
    25   11   36 1
    26   11   37 1
    27   12   13 2
    28   12   14 2
    29   12   15 1
    30   15   20 ar
    31   15   16 ar
    32   16   17 ar
    33   16   38 1
    34   17   18 ar
    35   17   23 1
    36   18   19 ar
    37   18   39 1
    38   19   20 ar
    39   20   21 1
    40   21   22 1
    41   21   40 1
    42   22   41 1
    43   22   42 1
@<TRIPOS>MOLECULE
ZINC55493217
   41    43     0     0     0
SMALL
USER_CHARGES

@<TRIPOS>ATOM
      1 C1         -0.0187    1.5258    0.0104 C.3       1 <0>        -0.1376
      2 C2          0.0021   -0.0041    0.0020 C.3       1 <0>        -0.0775
      3 C3          0.7074   -0.4901   -1.2379 C.2       1 <0>        -0.0562
      4 C4          0.0175   -0.7143   -2.3681 C.2       1 <0>        -0.1596
      5 S1          1.2684   -1.2612   -3.5145 S.3       1 <0>         0.1452
      6 C5          2.6806   -1.1729   -2.4435 C.2       1 <0>         0.1055
      7 C6          2.1405   -0.7153   -1.2261 C.2       1 <0>        -0.2420
      8 C7          3.0765   -0.5430   -0.1546 C.2       1 <0>         0.5592
      9 O1          2.7005   -0.1549    0.9379 O.2       1 <0>        -0.5157
     10 N1          4.3764   -0.8161   -0.3714 N.am      1 <0>        -0.6343
     11 H1          5.0139   -0.7014    0.3506 H         1 <0>         0.4197
     12 C8          4.8146   -1.2527   -1.5909 C.2       1 <0>         0.4515
     13 N2          3.9741   -1.4278   -2.5883 N.2       1 <0>        -0.4779
     14 C9          6.2502   -1.5412   -1.7887 C.ar      1 <0>        -0.0626
     15 C10         7.1507   -1.3742   -0.7348 C.ar      1 <0>        -0.0854
     16 C11         8.4896   -1.6453   -0.9264 C.ar      1 <0>        -0.1021
     17 C12         8.9408   -2.0820   -2.1594 C.ar      1 <0>        -0.0647
     18 C13         8.0538   -2.2497   -3.2080 C.ar      1 <0>        -0.1057
     19 C14         6.7113   -1.9877   -3.0286 C.ar      1 <0>        -0.0463
     20 C15        10.4050   -2.3758   -2.3612 C.3       1 <0>        -0.5852
     21 S2         10.7333   -4.1148   -1.9630 S.o2      1 <0>         2.6116
     22 O2         10.5577   -4.3397   -0.5709 O.2       1 <0>        -0.9531
     23 O3         10.1093   -4.9619   -2.9180 O.2       1 <0>        -0.9518
     24 N3         12.3573   -4.3112   -2.2211 N.pl3     1 <0>        -1.2510
     25 C16        -1.4605   -0.5451   -2.6092 C.3       1 <0>        -0.0684
     26 H2          1.0039    1.9031    0.0027 H         1 <0>         0.0527
     27 H3         -0.5459    1.8868   -0.8726 H         1 <0>         0.0521
     28 H4         -0.5289    1.8773    0.9072 H         1 <0>         0.0596
     29 H5          0.5293   -0.3651    0.8851 H         1 <0>         0.0880
     30 H6         -1.0205   -0.3814    0.0098 H         1 <0>         0.0728
     31 H7          6.7998   -1.0331    0.2279 H         1 <0>         0.1343
     32 H8          9.1873   -1.5162   -0.1122 H         1 <0>         0.1446
     33 H9          8.4126   -2.5905   -4.1679 H         1 <0>         0.1453
     34 H10         6.0194   -2.1232   -3.8466 H         1 <0>         0.1537
     35 H11        10.6743   -2.1838   -3.3999 H         1 <0>         0.1506
     36 H12        10.9975   -1.7353   -1.7079 H         1 <0>         0.1499
     37 H13        12.8946   -3.5620   -2.5224 H         1 <0>         0.4136
     38 H14        12.7711   -5.1756   -2.0711 H         1 <0>         0.4230
     39 H15        -1.6580    0.4688   -2.9573 H         1 <0>         0.0818
     40 H16        -1.7895   -1.2591   -3.3642 H         1 <0>         0.0767
     41 H17        -2.0028   -0.7225   -1.6805 H         1 <0>         0.0856
@<TRIPOS>BOND
     1    1    2 1
     2    1   26 1
     3    1   27 1
     4    1   28 1
     5    2    3 1
     6    2   29 1
     7    2   30 1
     8    3    7 1
     9    3    4 2
    10    4    5 1
    11    4   25 1
    12    5    6 1
    13    6   13 1
    14    6    7 2
    15    7    8 1
    16    8    9 2
    17    8   10 am
    18   10   11 1
    19   10   12 1
    20   12   13 2
    21   12   14 1
    22   14   19 ar
    23   14   15 ar
    24   15   16 ar
    25   15   31 1
    26   16   17 ar
    27   16   32 1
    28   17   18 ar
    29   17   20 1
    30   18   19 ar
    31   18   33 1
    32   19   34 1
    33   20   21 1
    34   20   35 1
    35   20   36 1
    36   21   22 2
    37   21   23 2
    38   21   24 1
    39   24   37 1
    40   24   38 1
    41   25   39 1
    42   25   40 1
    43   25   41 1
@<TRIPOS>MOLECULE
ZINC28975945
   45    47     0     0     0
SMALL
USER_CHARGES

@<TRIPOS>ATOM
      1 C1          0.0358    1.5041    0.0302 C.3       1 <0>        -0.1423
      2 C2          0.0346   -0.0258    0.0217 C.3       1 <0>        -0.1027
      3 C3          0.7514   -0.5434    1.2704 C.3       1 <0>        -0.1460
      4 C4         -1.4083   -0.5347    0.0141 C.3       1 <0>         0.0924
      5 N1         -1.4107   -1.9941   -0.1144 N.am      1 <0>        -0.5065
      6 C5         -1.4365   -2.5472   -1.3445 C.2       1 <0>         0.5749
      7 O1         -1.4576   -1.8511   -2.3423 O.2       1 <0>        -0.5089
      8 C6         -1.4379   -4.0175   -1.4472 C.2       1 <0>        -0.4157
      9 C7         -1.4632   -4.6552   -2.6737 C.2       1 <0>         0.3311
     10 N2         -1.6138   -3.9356   -3.8054 N.pl3     1 <0>        -0.5901
     11 C8         -1.7505   -4.5853   -5.0319 C.ar      1 <0>         0.1287
     12 C9         -1.7382   -5.9626   -5.0948 C.ar      1 <0>        -0.1432
     13 C10        -1.8739   -6.6199   -6.3136 C.ar      1 <0>        -0.0905
     14 C11        -2.0220   -5.9239   -7.4750 C.ar      1 <0>        -0.1014
     15 C12        -2.0396   -4.5200   -7.4540 C.ar      1 <0>        -0.0532
     16 C13        -1.9084   -3.8390   -6.2193 C.ar      1 <0>        -0.0464
     17 C14        -1.9321   -2.4353   -6.1992 C.ar      1 <0>        -0.1226
     18 C15        -2.0861   -1.7446   -7.3628 C.ar      1 <0>        -0.0876
     19 C16        -2.2217   -2.4087   -8.5789 C.ar      1 <0>        -0.1360
     20 C17        -2.1911   -3.7733   -8.6407 C.ar      1 <0>         0.1234
     21 O2         -2.3237   -4.4068   -9.8348 O.3       1 <0>        -0.4898
     22 C18        -1.4108   -4.7784   -0.1851 C.2       1 <0>         0.5779
     23 O3         -1.4098   -5.9951   -0.1888 O.2       1 <0>        -0.4910
     24 N3         -1.3866   -4.0892    0.9743 N.am      1 <0>        -0.6159
     25 C19        -1.3817   -2.7489    0.9928 C.2       1 <0>         0.5300
     26 S1         -1.3436   -1.9594    2.5114 S.2       1 <0>        -0.5026
     27 H1          1.0637    1.8667    0.0356 H         1 <0>         0.0627
     28 H2         -0.4749    1.8728   -0.8594 H         1 <0>         0.0569
     29 H3         -0.4807    1.8629    0.9205 H         1 <0>         0.0638
     30 H4          0.5511   -0.3846   -0.8686 H         1 <0>         0.0685
     31 H5          0.7505   -1.6333    1.2643 H         1 <0>         0.0436
     32 H6          1.7793   -0.1808    1.2758 H         1 <0>         0.0482
     33 H7          0.2349   -0.1846    2.1607 H         1 <0>         0.0847
     34 H8         -1.8984   -0.2512    0.9455 H         1 <0>         0.1280
     35 H9         -1.9442   -0.0950   -0.8270 H         1 <0>         0.1036
     36 H10        -1.3623   -5.7292   -2.7262 H         1 <0>         0.1875
     37 H11        -1.6270   -2.9665   -3.7657 H         1 <0>         0.4326
     38 H12        -1.6217   -6.5376   -4.1880 H         1 <0>         0.1360
     39 H13        -1.8611   -7.6996   -6.3392 H         1 <0>         0.1379
     40 H14        -2.1256   -6.4515   -8.4117 H         1 <0>         0.1390
     41 H15        -1.8289   -1.9051   -5.2640 H         1 <0>         0.1288
     42 H16        -2.1036   -0.6649   -7.3418 H         1 <0>         0.1346
     43 H17        -2.3432   -1.8371   -9.4872 H         1 <0>         0.1364
     44 H18        -3.2393   -4.6028  -10.0765 H         1 <0>         0.3951
     45 H19        -1.3688   -4.5747    1.8139 H         1 <0>         0.4461
@<TRIPOS>BOND
     1    1    2 1
     2    1   27 1
     3    1   28 1
     4    1   29 1
     5    2    3 1
     6    2    4 1
     7    2   30 1
     8    3   31 1
     9    3   32 1
    10    3   33 1
    11    4    5 1
    12    4   34 1
    13    4   35 1
    14    5   25 1
    15    5    6 am
    16    6    7 2
    17    6    8 1
    18    8    9 2
    19    8   22 1
    20    9   10 1
    21    9   36 1
    22   10   11 1
    23   10   37 1
    24   11   16 ar
    25   11   12 ar
    26   12   13 ar
    27   12   38 1
    28   13   14 ar
    29   13   39 1
    30   14   15 ar
    31   14   40 1
    32   15   20 ar
    33   15   16 ar
    34   16   17 ar
    35   17   18 ar
    36   17   41 1
    37   18   19 ar
    38   18   42 1
    39   19   20 ar
    40   19   43 1
    41   20   21 1
    42   21   44 1
    43   22   23 2
    44   22   24 am
    45   24   25 1
    46   24   45 1
    47   25   26 2
@<TRIPOS>MOLECULE
ZINC67272745
   47    49     0     0     0
SMALL
USER_CHARGES

@<TRIPOS>ATOM
      1 C1         -0.0167    1.3782    0.0096 C.ar      1 <0>        -0.1041
      2 C2          1.1706    2.0858    0.0021 C.ar      1 <0>        -0.1079
      3 C3          2.3780    1.4104   -0.0130 C.ar      1 <0>        -0.0386
      4 C4          2.3961    0.0270   -0.0206 C.ar      1 <0>        -0.1080
      5 C5          1.2082   -0.6795   -0.0130 C.ar      1 <0>        -0.1042
      6 C6          0.0021   -0.0041    0.0020 C.ar      1 <0>        -0.0782
      7 C7         -1.2928   -0.7750    0.0107 C.3       1 <0>        -0.0792
      8 C8         -1.7453   -1.0281   -1.4288 C.3       1 <0>        -0.1257
      9 C9         -3.0599   -1.8108   -1.4200 C.3       1 <0>         0.1171
     10 N1         -3.4932   -2.0531   -2.7983 N.am      1 <0>        -0.7329
     11 C10        -4.6342   -2.7296   -3.0369 C.2       1 <0>         0.5187
     12 O1         -5.3022   -3.1377   -2.1106 O.2       1 <0>        -0.5316
     13 C11        -5.0799   -2.9790   -4.4548 C.3       1 <0>        -0.1043
     14 C12        -5.2871   -1.6407   -5.1670 C.3       1 <0>        -0.1192
     15 C13        -5.7279   -1.8953   -6.6106 C.3       1 <0>        -0.1103
     16 C14        -7.0238   -2.6986   -6.6154 C.3       1 <0>         0.1206
     17 C15        -6.8399   -4.0251   -5.8865 C.3       1 <0>        -0.1126
     18 C16        -6.3946   -3.7617   -4.4458 C.3       1 <0>        -0.1085
     19 C17        -8.1419   -1.9005   -5.9853 C.2       1 <0>         0.5314
     20 O2         -8.1963   -1.4853   -4.8476 O.2       1 <0>        -0.4497
     21 N2         -9.0667   -1.7475   -6.9556 N.am      1 <0>        -0.6816
     22 C18        -8.6857   -2.3345   -8.0968 C.2       1 <0>         0.7042
     23 O3         -9.3520   -2.3322   -9.1133 O.2       1 <0>        -0.5395
     24 N3         -7.4813   -2.9278   -7.9920 N.am      1 <0>        -0.7185
     25 Cl1         3.8696    2.2984   -0.0231 Cl        1 <0>        -0.0696
     26 H1         -0.9592    1.9053    0.0259 H         1 <0>         0.1321
     27 H2          1.1558    3.1656    0.0076 H         1 <0>         0.1337
     28 H3          3.3383   -0.5007   -0.0327 H         1 <0>         0.1337
     29 H4          1.2222   -1.7594   -0.0193 H         1 <0>         0.1320
     30 H5         -1.1447   -1.7283    0.5180 H         1 <0>         0.0798
     31 H6         -2.0551   -0.1989    0.5352 H         1 <0>         0.0799
     32 H7         -1.8934   -0.0748   -1.9361 H         1 <0>         0.0724
     33 H8         -0.9830   -1.6042   -1.9533 H         1 <0>         0.0722
     34 H9         -2.9118   -2.7641   -0.9127 H         1 <0>         0.0692
     35 H10        -3.8222   -1.2347   -0.8955 H         1 <0>         0.0696
     36 H11        -2.9589   -1.7267   -3.5392 H         1 <0>         0.4002
     37 H12        -4.3176   -3.5552   -4.9791 H         1 <0>         0.1005
     38 H13        -6.0556   -1.0679   -4.6480 H         1 <0>         0.0887
     39 H14        -4.3525   -1.0797   -5.1658 H         1 <0>         0.0784
     40 H15        -5.8897   -0.9423   -7.1142 H         1 <0>         0.0803
     41 H16        -4.9522   -2.4547   -7.1336 H         1 <0>         0.0909
     42 H17        -7.7839   -4.5700   -5.8808 H         1 <0>         0.0801
     43 H18        -6.0819   -4.6183   -6.3981 H         1 <0>         0.0891
     44 H19        -6.2488   -4.7114   -3.9311 H         1 <0>         0.0827
     45 H20        -7.1594   -3.1818   -3.9293 H         1 <0>         0.0905
     46 H21        -9.9041   -1.2717   -6.8404 H         1 <0>         0.4338
     47 H22        -7.0091   -3.4107   -8.6882 H         1 <0>         0.4419
@<TRIPOS>BOND
     1    1    6 ar
     2    1    2 ar
     3    1   26 1
     4    2    3 ar
     5    2   27 1
     6    3    4 ar
     7    3   25 1
     8    4    5 ar
     9    4   28 1
    10    5    6 ar
    11    5   29 1
    12    6    7 1
    13    7    8 1
    14    7   30 1
    15    7   31 1
    16    8    9 1
    17    8   32 1
    18    8   33 1
    19    9   10 1
    20    9   34 1
    21    9   35 1
    22   10   11 am
    23   10   36 1
    24   11   12 2
    25   11   13 1
    26   13   18 1
    27   13   14 1
    28   13   37 1
    29   14   15 1
    30   14   38 1
    31   14   39 1
    32   15   16 1
    33   15   40 1
    34   15   41 1
    35   16   24 1
    36   16   17 1
    37   16   19 1
    38   17   18 1
    39   17   42 1
    40   17   43 1
    41   18   44 1
    42   18   45 1
    43   19   20 2
    44   19   21 am
    45   21   22 am
    46   21   46 1
    47   22   23 2
    48   22   24 am
    49   24   47 1
@<TRIPOS>MOLECULE
ZINC09970564
   47    49     0     0     0
SMALL
USER_CHARGES
3-[5-(p-tolyl)-2-furyl]-N-(4-sulfamoylphenyl)-propanamide
@<TRIPOS>ATOM
      1 C1          7.8336    0.9826   -0.0463 C.3       1 <0>        -0.1189
      2 C2          6.3282    0.9139   -0.0367 C.ar      1 <0>        -0.0772
      3 C3          5.5856    2.0812   -0.0209 C.ar      1 <0>        -0.1178
      4 C4          4.2072    2.0254   -0.0121 C.ar      1 <0>        -0.0976
      5 C5          3.5619    0.7877   -0.0193 C.ar      1 <0>        -0.0259
      6 C6          4.3172   -0.3862   -0.0294 C.ar      1 <0>        -0.0925
      7 C7          5.6949   -0.3162   -0.0434 C.ar      1 <0>        -0.1170
      8 C8          2.0856    0.7203   -0.0100 C.2       1 <0>         0.0316
      9 C9          1.3387   -0.4157   -0.0155 C.2       1 <0>        -0.1904
     10 C10        -0.0119   -0.0136   -0.0027 C.2       1 <0>        -0.1983
     11 C11        -0.0225    1.3337    0.0098 C.2       1 <0>        -0.0102
     12 O1          1.2464    1.7737    0.0054 O.3       1 <0>        -0.1675
     13 C12        -1.2537    2.2026    0.0205 C.3       1 <0>        -0.0242
     14 C13        -1.6674    2.4832    1.4666 C.3       1 <0>        -0.1368
     15 C14        -2.8986    3.3521    1.4772 C.2       1 <0>         0.5172
     16 O2         -3.3963    3.7115    0.4312 O.2       1 <0>        -0.5087
     17 N1         -3.4467    3.7298    2.6492 N.am      1 <0>        -0.6779
     18 C15        -4.5308    4.6144    2.6616 C.ar      1 <0>         0.2043
     19 C16        -4.6583    5.5443    3.6851 C.ar      1 <0>        -0.1675
     20 C17        -5.7260    6.4205    3.6910 C.ar      1 <0>         0.0042
     21 C18        -6.6742    6.3640    2.6860 C.ar      1 <0>        -0.6943
     22 C19        -6.5533    5.4351    1.6688 C.ar      1 <0>        -0.0012
     23 C20        -5.4845    4.5606    1.6536 C.ar      1 <0>        -0.1446
     24 S1         -8.0389    7.4783    2.7014 S.o2      1 <0>         2.7035
     25 O3         -7.6318    8.6087    3.4602 O.2       1 <0>        -0.9632
     26 O4         -8.4913    7.5850    1.3585 O.2       1 <0>        -0.9600
     27 N2         -9.2567    6.7493    3.5545 N.pl3     1 <0>        -1.2483
     28 H1          8.2035    0.9896    0.9790 H         1 <0>         0.0737
     29 H2          8.2336    0.1149   -0.5709 H         1 <0>         0.0690
     30 H3          8.1526    1.8929   -0.5538 H         1 <0>         0.0687
     31 H4          6.0862    3.0382   -0.0158 H         1 <0>         0.1277
     32 H5          3.6287    2.9374    0.0006 H         1 <0>         0.1276
     33 H6          3.8240   -1.3471   -0.0301 H         1 <0>         0.1288
     34 H7          6.2804   -1.2236   -0.0554 H         1 <0>         0.1296
     35 H8          1.7090   -1.4302   -0.0274 H         1 <0>         0.1515
     36 H9         -0.8752   -0.6626   -0.0029 H         1 <0>         0.1521
     37 H10        -1.0385    3.1439   -0.4850 H         1 <0>         0.0926
     38 H11        -2.0649    1.6897   -0.4964 H         1 <0>         0.1059
     39 H12        -1.8826    1.5418    1.9721 H         1 <0>         0.1068
     40 H13        -0.8562    2.9961    1.9835 H         1 <0>         0.1051
     41 H14        -3.0897    3.3884    3.4839 H         1 <0>         0.4174
     42 H15        -3.9209    5.5855    4.4731 H         1 <0>         0.1384
     43 H16        -5.8228    7.1476    4.4837 H         1 <0>         0.1476
     44 H17        -7.2953    5.3937    0.8851 H         1 <0>         0.1472
     45 H18        -5.3903    3.8358    0.8585 H         1 <0>         0.1507
     46 H19        -9.8927    7.2892    4.0494 H         1 <0>         0.4219
     47 H20        -9.3340    5.7824    3.5593 H         1 <0>         0.4170
@<TRIPOS>BOND
     1    1    2 1
     2    1   28 1
     3    1   29 1
     4    1   30 1
     5    2    7 ar
     6    2    3 ar
     7    3    4 ar
     8    3   31 1
     9    4    5 ar
    10    4   32 1
    11    5    6 ar
    12    5    8 1
    13    6    7 ar
    14    6   33 1
    15    7   34 1
    16    8   12 1
    17    8    9 2
    18    9   10 1
    19    9   35 1
    20   10   11 2
    21   10   36 1
    22   11   12 1
    23   11   13 1
    24   13   14 1
    25   13   37 1
    26   13   38 1
    27   14   15 1
    28   14   39 1
    29   14   40 1
    30   15   16 2
    31   15   17 am
    32   17   18 1
    33   17   41 1
    34   18   23 ar
    35   18   19 ar
    36   19   20 ar
    37   19   42 1
    38   20   21 ar
    39   20   43 1
    40   21   22 ar
    41   21   24 1
    42   22   23 ar
    43   22   44 1
    44   23   45 1
    45   24   25 2
    46   24   26 2
    47   24   27 1
    48   27   46 1
    49   27   47 1
@<TRIPOS>MOLECULE
ZINC01136290
   43    45     0     0     0
SMALL
USER_CHARGES

@<TRIPOS>ATOM
      1 C1         -0.2176    1.4573   -1.4467 C.3       1 <0>        -0.1538
      2 C2         -0.1842   -0.0681   -1.3320 C.3       1 <0>         0.0651
      3 O1         -1.4673   -0.5430   -0.9196 O.3       1 <0>        -0.3462
      4 C3         -1.6079   -1.8775   -0.7698 C.2       1 <0>         0.5304
      5 O2         -0.6647   -2.6168   -0.9842 O.2       1 <0>        -0.4988
      6 C4         -2.8461   -2.4144   -0.3654 C.2       1 <0>        -0.2643
      7 C5         -2.9829   -3.7440   -0.0857 C.2       1 <0>         0.3033
      8 N1         -4.1956   -4.2581    0.3082 N.am      1 <0>        -0.6440
      9 C6         -5.3033   -3.5185    0.4438 C.2       1 <0>         0.7072
     10 O3         -6.3311   -4.0625    0.7977 O.2       1 <0>        -0.5555
     11 N2         -5.3198   -2.1935    0.2028 N.am      1 <0>        -0.7098
     12 C7         -4.0721   -1.5360   -0.2191 C.3       1 <0>         0.2399
     13 H1         -4.2582   -1.0565   -1.1801 H         1 <0>         0.0968
     14 C8         -3.7512   -0.4537    0.7793 C.ar      1 <0>        -0.1067
     15 C9         -3.7978   -0.7283    2.1337 C.ar      1 <0>        -0.0769
     16 C10        -3.5046    0.2618    3.0514 C.ar      1 <0>        -0.1365
     17 C11        -3.1626    1.5328    2.6136 C.ar      1 <0>         0.1243
     18 C12        -3.1160    1.8064    1.2535 C.ar      1 <0>        -0.0660
     19 C13        -3.4053    0.8104    0.3393 C.ar      1 <0>        -0.0515
     20 Cl1        -2.6885    3.3956    0.7010 Cl        1 <0>        -0.0540
     21 O4         -2.8742    2.5086    3.5147 O.3       1 <0>        -0.4872
     22 C14        -1.8154   -4.6397   -0.2082 C.ar      1 <0>        -0.0820
     23 C15        -0.7053   -4.4626    0.6207 C.ar      1 <0>        -0.0417
     24 C16         0.3817   -5.3033    0.5011 C.ar      1 <0>        -0.1204
     25 C17         0.3743   -6.3199   -0.4376 C.ar      1 <0>        -0.0945
     26 C18        -0.7220   -6.5008   -1.2624 C.ar      1 <0>        -0.1225
     27 C19        -1.8184   -5.6715   -1.1496 C.ar      1 <0>        -0.0876
     28 H2          0.7611    1.8195   -1.7613 H         1 <0>         0.0784
     29 H3         -0.9670    1.7500   -2.1821 H         1 <0>         0.0665
     30 H4         -0.4707    1.8889   -0.4783 H         1 <0>         0.0665
     31 H5          0.0690   -0.4998   -2.3003 H         1 <0>         0.0667
     32 H6          0.5652   -0.3608   -0.5966 H         1 <0>         0.0651
     33 H7         -4.2517   -5.2078    0.4977 H         1 <0>         0.4323
     34 H8         -6.1370   -1.6819    0.3088 H         1 <0>         0.4356
     35 H9         -4.0641   -1.7180    2.4745 H         1 <0>         0.1242
     36 H10        -3.5419    0.0465    4.1091 H         1 <0>         0.1382
     37 H11        -3.3653    1.0212   -0.7192 H         1 <0>         0.1422
     38 H12        -1.9394    2.5558    3.7576 H         1 <0>         0.3944
     39 H13        -0.6978   -3.6691    1.3533 H         1 <0>         0.1184
     40 H14         1.2408   -5.1675    1.1414 H         1 <0>         0.1267
     41 H15         1.2282   -6.9750   -0.5272 H         1 <0>         0.1256
     42 H16        -0.7210   -7.2960   -1.9932 H         1 <0>         0.1279
     43 H17        -2.6753   -5.8168   -1.7907 H         1 <0>         0.1243
@<TRIPOS>BOND
     1    1    2 1
     2    1   28 1
     3    1   29 1
     4    1   30 1
     5    2    3 1
     6    2   31 1
     7    2   32 1
     8    3    4 1
     9    4    5 2
    10    4    6 1
    11    6   12 1
    12    6    7 2
    13    7    8 1
    14    7   22 1
    15    8    9 am
    16    8   33 1
    17    9   10 2
    18    9   11 am
    19   11   12 1
    20   11   34 1
    21   12   13 1
    22   12   14 1
    23   14   19 ar
    24   14   15 ar
    25   15   16 ar
    26   15   35 1
    27   16   17 ar
    28   16   36 1
    29   17   18 ar
    30   17   21 1
    31   18   19 ar
    32   18   20 1
    33   19   37 1
    34   21   38 1
    35   22   27 ar
    36   22   23 ar
    37   23   24 ar
    38   23   39 1
    39   24   25 ar
    40   24   40 1
    41   25   26 ar
    42   25   41 1
    43   26   27 ar
    44   26   42 1
    45   27   43 1
@<TRIPOS>MOLECULE
ZINC44550566
   38    39     0     0     0
SMALL
USER_CHARGES

@<TRIPOS>ATOM
      1 C1         -0.0184    1.5028    0.0103 C.3       1 <0>        -0.1276
      2 C2          0.0021   -0.0041    0.0020 C.ar      1 <0>        -0.0165
      3 C3          0.0057   -0.6887   -1.1989 C.ar      1 <0>        -0.1533
      4 C4          0.0245   -2.0709   -1.2065 C.ar      1 <0>        -0.0165
      5 C5          0.0400   -2.7685   -0.0132 C.ar      1 <0>        -0.6845
      6 C6          0.0373   -2.0839    1.1877 C.ar      1 <0>         0.0294
      7 C7          0.0229   -0.7016    1.1953 C.ar      1 <0>        -0.1510
      8 S1          0.0628   -4.5303   -0.0229 S.o2      1 <0>         2.6803
      9 O1         -0.4759   -4.9503    1.2232 O.2       1 <0>        -0.8953
     10 O2         -0.4897   -4.9367   -1.2674 O.2       1 <0>        -0.9342
     11 N1          1.6509   -4.9994   -0.0343 N.pl3     1 <0>        -1.0285
     12 C8          2.4428   -4.7230    1.0207 C.2       1 <0>         0.5510
     13 S2          1.8068   -3.8869    2.3726 S.2       1 <0>        -0.4944
     14 N2          3.7353   -5.1048    1.0115 N.pl3     1 <0>        -0.4401
     15 N3          4.2557   -5.7890   -0.0948 N.am      1 <0>        -0.5490
     16 C9          5.5482   -6.1708   -0.1040 C.2       1 <0>         0.5726
     17 O3          6.2624   -5.9215    0.8475 O.2       1 <0>        -0.5054
     18 C10         6.0972   -6.8926   -1.2710 C.ar      1 <0>        -0.1330
     19 C11         5.2808   -7.1753   -2.3677 C.ar      1 <0>        -0.0740
     20 C12         5.7988   -7.8486   -3.4539 C.ar      1 <0>        -0.1134
     21 C13         7.1262   -8.2443   -3.4583 C.ar      1 <0>        -0.0027
     22 C14         7.9410   -7.9668   -2.3731 C.ar      1 <0>        -0.1132
     23 C15         7.4357   -7.2894   -1.2834 C.ar      1 <0>        -0.0351
     24 Cl1         7.7710   -9.0922   -4.8291 Cl        1 <0>        -0.0486
     25 H1          1.0042    1.8801    0.0026 H         1 <0>         0.0801
     26 H2         -0.5455    1.8639   -0.8728 H         1 <0>         0.0732
     27 H3         -0.5286    1.8543    0.9071 H         1 <0>         0.0747
     28 H4         -0.0064   -0.1436   -2.1312 H         1 <0>         0.1321
     29 H5          0.0266   -2.6057   -2.1448 H         1 <0>         0.1372
     30 H6          0.0491   -2.6289    2.1200 H         1 <0>         0.1659
     31 H7          0.0245   -0.1667    2.1335 H         1 <0>         0.1340
     32 H8          2.0112   -5.4731   -0.8002 H         1 <0>         0.4181
     33 H9          4.3052   -4.9059    1.7708 H         1 <0>         0.4641
     34 H10         3.6858   -5.9880   -0.8541 H         1 <0>         0.4223
     35 H11         4.2456   -6.8675   -2.3653 H         1 <0>         0.1328
     36 H12         5.1682   -8.0681   -4.3027 H         1 <0>         0.1475
     37 H13         8.9752   -8.2778   -2.3822 H         1 <0>         0.1486
     38 H14         8.0731   -7.0696   -0.4397 H         1 <0>         0.1522
@<TRIPOS>BOND
     1    1    2 1
     2    1   25 1
     3    1   26 1
     4    1   27 1
     5    2    7 ar
     6    2    3 ar
     7    3    4 ar
     8    3   28 1
     9    4    5 ar
    10    4   29 1
    11    5    6 ar
    12    5    8 1
    13    6    7 ar
    14    6   30 1
    15    7   31 1
    16    8    9 2
    17    8   10 2
    18    8   11 1
    19   11   12 1
    20   11   32 1
    21   12   13 2
    22   12   14 1
    23   14   15 1
    24   14   33 1
    25   15   16 am
    26   15   34 1
    27   16   17 2
    28   16   18 1
    29   18   23 ar
    30   18   19 ar
    31   19   20 ar
    32   19   35 1
    33   20   21 ar
    34   20   36 1
    35   21   22 ar
    36   21   24 1
    37   22   23 ar
    38   22   37 1
    39   23   38 1
@<TRIPOS>MOLECULE
ZINC59913439
   40    41     0     0     0
SMALL
USER_CHARGES

@<TRIPOS>ATOM
      1 C1         -0.0472    1.5780   -0.0116 C.3       1 <0>        -0.1425
      2 C2         -0.0178    0.0484   -0.0254 C.3       1 <0>        -0.0040
      3 C3          0.7303   -0.4586    1.2092 C.3       1 <0>        -0.1440
      4 C4         -1.4286   -0.4813   -0.0105 C.2       1 <0>         0.2288
      5 N1         -2.3250   -0.2647    0.9100 N.2       1 <0>        -0.2747
      6 N2         -3.4207   -0.8650    0.6088 N.2       1 <0>        -0.2720
      7 C5         -3.2813   -1.5027   -0.5303 C.2       1 <0>         0.1170
      8 N3         -2.0070   -1.2734   -0.9635 N.pl3     1 <0>        -0.3058
      9 N4         -1.4288   -1.7406   -2.1096 N.3       1 <0>        -0.5823
     10 S1         -4.5085   -2.4667   -1.3484 S.3       1 <0>        -0.0146
     11 C6         -5.9536   -2.3549   -0.2575 C.3       1 <0>        -0.0808
     12 C7         -7.1088   -3.1590   -0.8574 C.3       1 <0>        -0.1258
     13 C8         -8.3093   -3.0662    0.0488 C.2       1 <0>         0.5241
     14 O1         -8.2470   -2.4205    1.0737 O.2       1 <0>        -0.5032
     15 N5         -9.4521   -3.7007   -0.2795 N.am      1 <0>        -0.6693
     16 C9        -10.5362   -3.6928    0.6060 C.ar      1 <0>         0.1684
     17 C10       -10.7835   -2.5761    1.3929 C.ar      1 <0>        -0.1040
     18 C11       -11.8551   -2.5712    2.2660 C.ar      1 <0>        -0.0125
     19 C12       -12.6813   -3.6780    2.3560 C.ar      1 <0>        -0.1118
     20 C13       -12.4373   -4.7916    1.5740 C.ar      1 <0>        -0.0775
     21 C14       -11.3706   -4.8004    0.6949 C.ar      1 <0>        -0.0622
     22 Cl1       -11.0694   -6.1966   -0.2919 Cl        1 <0>        -0.0540
     23 Cl2       -12.1648   -1.1756    3.2509 Cl        1 <0>        -0.0502
     24 H1          0.9733    1.9611   -0.0224 H         1 <0>         0.0708
     25 H2         -0.5801    1.9391   -0.8912 H         1 <0>         0.0563
     26 H3         -0.5555    1.9236    0.8886 H         1 <0>         0.0686
     27 H4          0.4905   -0.2972   -0.9256 H         1 <0>         0.0971
     28 H5          0.2220   -0.1130    2.1094 H         1 <0>         0.0693
     29 H6          0.7512   -1.5483    1.1994 H         1 <0>         0.0540
     30 H7          1.7507   -0.0755    1.1984 H         1 <0>         0.0714
     31 H8         -0.9832   -2.6321   -1.9524 H         1 <0>         0.3674
     32 H9         -2.1042   -1.8007   -2.8568 H         1 <0>         0.3775
     33 H10        -5.7007   -2.7584    0.7230 H         1 <0>         0.1091
     34 H11        -6.2517   -1.3115   -0.1552 H         1 <0>         0.1095
     35 H12        -7.3617   -2.7556   -1.8379 H         1 <0>         0.1136
     36 H13        -6.8106   -4.2024   -0.9597 H         1 <0>         0.1136
     37 H14        -9.5233   -4.1629   -1.1293 H         1 <0>         0.4176
     38 H15       -10.1389   -1.7123    1.3233 H         1 <0>         0.1609
     39 H16       -13.5180   -3.6719    3.0389 H         1 <0>         0.1467
     40 H17       -13.0833   -5.6541    1.6470 H         1 <0>         0.1495
@<TRIPOS>BOND
     1    1    2 1
     2    1   24 1
     3    1   25 1
     4    1   26 1
     5    2    3 1
     6    2    4 1
     7    2   27 1
     8    3   28 1
     9    3   29 1
    10    3   30 1
    11    4    8 1
    12    4    5 2
    13    5    6 1
    14    6    7 2
    15    7    8 1
    16    7   10 1
    17    8    9 1
    18    9   31 1
    19    9   32 1
    20   10   11 1
    21   11   12 1
    22   11   33 1
    23   11   34 1
    24   12   13 1
    25   12   35 1
    26   12   36 1
    27   13   14 2
    28   13   15 am
    29   15   16 1
    30   15   37 1
    31   16   21 ar
    32   16   17 ar
    33   17   18 ar
    34   17   38 1
    35   18   19 ar
    36   18   23 1
    37   19   20 ar
    38   19   39 1
    39   20   21 ar
    40   20   40 1
    41   21   22 1
@<TRIPOS>MOLECULE
ZINC65192216
   42    44     0     0     0
SMALL
USER_CHARGES

@<TRIPOS>ATOM
      1 C1         -0.0164    1.3567    0.0095 C.ar      1 <0>        -0.1233
      2 C2          1.1684    2.0908    0.0021 C.ar      1 <0>        -0.0924
      3 C3          2.3782    1.4678   -0.0127 C.ar      1 <0>        -0.1204
      4 C4          2.4375    0.0634   -0.0208 C.ar      1 <0>         0.0059
      5 C5          1.2325   -0.6834   -0.0133 C.ar      1 <0>        -0.0802
      6 C6          0.0021   -0.0041    0.0020 C.ar      1 <0>        -0.0910
      7 C7          1.2878   -2.0876   -0.0202 C.ar      1 <0>        -0.0421
      8 C8          2.4927   -2.7184   -0.0341 C.ar      1 <0>        -0.1956
      9 C9          3.6856   -1.9898   -0.0411 C.ar      1 <0>         0.1618
     10 C10         3.6687   -0.6133   -0.0356 C.ar      1 <0>        -0.1270
     11 Br1         5.2902    0.3595   -0.0460 Br        1 <0>        -0.0211
     12 O1          4.8749   -2.6474   -0.0541 O.3       1 <0>        -0.2730
     13 C11         4.8265   -4.0756   -0.0598 C.3       1 <0>         0.0486
     14 C12         6.2295   -4.6257   -0.0741 C.2       1 <0>         0.5170
     15 O2          7.1774   -3.8692   -0.0789 O.2       1 <0>        -0.4950
     16 N1          6.4307   -5.9583   -0.0815 N.am      1 <0>        -0.5282
     17 N2          7.7350   -6.4697   -0.0948 N.am      1 <0>        -0.5278
     18 C13         7.9363   -7.8024   -0.1022 C.2       1 <0>         0.7143
     19 O3          9.0682   -8.2462   -0.1138 O.2       1 <0>        -0.5641
     20 N3          6.8828   -8.6430   -0.0969 N.am      1 <0>        -0.7406
     21 C14         7.1016  -10.0916   -0.1049 C.3       1 <0>         0.1662
     22 C15         5.7515  -10.8113   -0.0965 C.3       1 <0>        -0.1758
     23 C16         5.4221  -11.6809    1.1184 C.3       1 <0>        -0.1760
     24 C17         5.7630  -12.3362   -0.2215 C.3       1 <0>        -0.1669
     25 H1         -0.9634    1.8756    0.0259 H         1 <0>         0.1276
     26 H2          1.1257    3.1699    0.0079 H         1 <0>         0.1290
     27 H3          3.2882    2.0495   -0.0187 H         1 <0>         0.1364
     28 H4         -0.9242   -0.5593    0.0082 H         1 <0>         0.1319
     29 H5          0.3751   -2.6649   -0.0142 H         1 <0>         0.1405
     30 H6          2.5283   -3.7978   -0.0394 H         1 <0>         0.1395
     31 H7          4.3083   -4.4252    0.8332 H         1 <0>         0.1043
     32 H8          4.2932   -4.4175   -0.9467 H         1 <0>         0.1042
     33 H9          5.6726   -6.5634   -0.0777 H         1 <0>         0.4202
     34 H10         8.4932   -5.8647   -0.0987 H         1 <0>         0.4460
     35 H11         5.9798   -8.2890   -0.0877 H         1 <0>         0.3913
     36 H12         7.6563  -10.3703   -1.0009 H         1 <0>         0.0761
     37 H13         7.6715  -10.3779    0.7790 H         1 <0>         0.0738
     38 H14         4.9293  -10.2739   -0.5690 H         1 <0>         0.1102
     39 H15         6.1672  -11.7403    1.9118 H         1 <0>         0.0985
     40 H16         4.3829  -11.7156    1.4457 H         1 <0>         0.0973
     41 H17         4.9482  -12.8019   -0.7757 H         1 <0>         0.1000
     42 H18         6.7325  -12.8266   -0.3096 H         1 <0>         0.1000
@<TRIPOS>BOND
     1    1    6 ar
     2    1    2 ar
     3    1   25 1
     4    2    3 ar
     5    2   26 1
     6    3    4 ar
     7    3   27 1
     8    4   10 ar
     9    4    5 ar
    10    5    6 ar
    11    5    7 ar
    12    6   28 1
    13    7    8 ar
    14    7   29 1
    15    8    9 ar
    16    8   30 1
    17    9   10 ar
    18    9   12 1
    19   10   11 1
    20   12   13 1
    21   13   14 1
    22   13   31 1
    23   13   32 1
    24   14   15 2
    25   14   16 am
    26   16   17 1
    27   16   33 1
    28   17   18 am
    29   17   34 1
    30   18   19 2
    31   18   20 am
    32   20   21 1
    33   20   35 1
    34   21   22 1
    35   21   36 1
    36   21   37 1
    37   22   24 1
    38   22   23 1
    39   22   38 1
    40   23   24 1
    41   23   39 1
    42   23   40 1
    43   24   41 1
    44   24   42 1
@<TRIPOS>MOLECULE
ZINC01051688
   39    40     0     0     0
SMALL
USER_CHARGES
2-(2,6-dibromo-4-methyl-phenyl)amino-N-[(2,4-dihydroxyphenyl)methyleneamino]acetamide
@<TRIPOS>ATOM
      1 C1         -8.4645   10.5433   -0.3621 C.3       1 <0>        -0.1161
      2 C2         -7.1756    9.7705   -0.2498 C.ar      1 <0>        -0.0783
      3 C3         -6.5422    9.3160   -1.3919 C.ar      1 <0>        -0.0650
      4 C4         -5.3601    8.6070   -1.2928 C.ar      1 <0>        -0.1244
      5 C5         -4.8082    8.3510   -0.0435 C.ar      1 <0>         0.1427
      6 C6         -5.4502    8.8047    1.1021 C.ar      1 <0>        -0.0714
      7 C7         -6.6290    9.5180    0.9950 C.ar      1 <0>        -0.0677
      8 Br1        -4.7081    8.4528    2.8055 Br        1 <0>        -0.0172
      9 N1         -3.6129    7.6338    0.0606 N.pl3     1 <0>        -0.6205
     10 C8         -3.8710    6.1901    0.1462 C.3       1 <0>         0.0508
     11 C9         -2.5746    5.4617    0.3904 C.2       1 <0>         0.5328
     12 O1         -1.5374    6.0841    0.4840 O.2       1 <0>        -0.4736
     13 N2         -2.5673    4.1188    0.5048 N.am      1 <0>        -0.5887
     14 N3         -1.3621    3.4416    0.7318 N.2       1 <0>        -0.1997
     15 C10        -1.3551    2.1480    0.8420 C.2       1 <0>         0.1009
     16 C11        -0.0879    1.4360    1.0808 C.ar      1 <0>        -0.0953
     17 C12        -0.0772    0.0437    1.1998 C.ar      1 <0>        -0.0576
     18 C13         1.1109   -0.6189    1.4174 C.ar      1 <0>        -0.1599
     19 C14         2.3006    0.0929    1.5186 C.ar      1 <0>         0.1407
     20 C15         2.3005    1.4752    1.4018 C.ar      1 <0>        -0.1820
     21 C16         1.1134    2.1521    1.1836 C.ar      1 <0>         0.1659
     22 O2          1.1119    3.5052    1.0687 O.3       1 <0>        -0.4708
     23 O3          3.4680   -0.5679    1.7323 O.3       1 <0>        -0.4975
     24 Br2        -4.4946    7.9864   -2.8553 Br        1 <0>        -0.0315
     25 H1         -9.3065    9.8516   -0.3344 H         1 <0>         0.0782
     26 H2         -8.5420   11.2435    0.4696 H         1 <0>         0.0744
     27 H3         -8.4773   11.0937   -1.3028 H         1 <0>         0.0734
     28 H4         -6.9716    9.5156   -2.3625 H         1 <0>         0.1410
     29 H5         -7.1265    9.8746    1.8849 H         1 <0>         0.1440
     30 H6         -2.9958    7.8458   -0.7089 H         1 <0>         0.3721
     31 H7         -4.3118    5.8438   -0.7886 H         1 <0>         0.0755
     32 H8         -4.5594    5.9922    0.9678 H         1 <0>         0.1118
     33 H9         -3.3966    3.6212    0.4299 H         1 <0>         0.3840
     34 H10        -2.2784    1.5940    0.7587 H         1 <0>         0.1217
     35 H11        -0.9997   -0.5124    1.1217 H         1 <0>         0.1381
     36 H12         1.1180   -1.6949    1.5093 H         1 <0>         0.1371
     37 H13         3.2276    2.0234    1.4809 H         1 <0>         0.1393
     38 H14         0.9926    3.9710    1.9076 H         1 <0>         0.3961
     39 H15         3.9242   -0.8326    0.9218 H         1 <0>         0.3967
@<TRIPOS>BOND
     1    1    2 1
     2    1   25 1
     3    1   26 1
     4    1   27 1
     5    2    7 ar
     6    2    3 ar
     7    3    4 ar
     8    3   28 1
     9    4    5 ar
    10    4   24 1
    11    5    6 ar
    12    5    9 1
    13    6    7 ar
    14    6    8 1
    15    7   29 1
    16    9   10 1
    17    9   30 1
    18   10   11 1
    19   10   31 1
    20   10   32 1
    21   11   12 2
    22   11   13 am
    23   13   14 1
    24   13   33 1
    25   14   15 2
    26   15   16 1
    27   15   34 1
    28   16   21 ar
    29   16   17 ar
    30   17   18 ar
    31   17   35 1
    32   18   19 ar
    33   18   36 1
    34   19   20 ar
    35   19   23 1
    36   20   21 ar
    37   20   37 1
    38   21   22 1
    39   22   38 1
    40   23   39 1
@<TRIPOS>MOLECULE
ZINC14531672
   63    66     0     0     0
SMALL
USER_CHARGES
3-[(2-hydroxyphenyl)methylamino]-N-indan-2-yl-5-(isopropylsulfamoyl)benzamide
@<TRIPOS>ATOM
      1 C1         -7.7234    6.7726    3.9216 C.3       1 <0>        -0.1576
      2 C2         -6.3273    6.1515    3.9998 C.3       1 <0>         0.1404
      3 C3         -6.3870    4.7004    3.5184 C.3       1 <0>        -0.1771
      4 N1         -5.4068    6.9105    3.1496 N.pl3     1 <0>        -1.1103
      5 S1         -3.8281    7.1085    3.6088 S.o2      1 <0>         2.6928
      6 O1         -3.8502    7.5444    4.9611 O.2       1 <0>        -0.9531
      7 O2         -3.1959    7.8549    2.5780 O.2       1 <0>        -0.9513
      8 C4         -3.0808    5.5129    3.6061 C.ar      1 <0>        -0.6324
      9 C5         -2.4747    5.0392    2.4601 C.ar      1 <0>        -0.0176
     10 C6         -1.8823    3.7754    2.4551 C.ar      1 <0>        -0.1043
     11 C7         -1.9096    2.9929    3.6094 C.ar      1 <0>        -0.1163
     12 C8         -2.5163    3.4798    4.7570 C.ar      1 <0>         0.2000
     13 C9         -3.1038    4.7397    4.7514 C.ar      1 <0>        -0.0701
     14 N2         -2.5422    2.7021    5.9174 N.pl3     1 <0>        -0.7346
     15 C10        -1.9230    1.3743    5.9232 C.3       1 <0>         0.1734
     16 C11        -2.0878    0.7492    7.2845 C.ar      1 <0>        -0.1404
     17 C12        -1.0395    0.7657    8.1844 C.ar      1 <0>        -0.0836
     18 C13        -1.1916    0.1967    9.4351 C.ar      1 <0>        -0.1293
     19 C14        -2.3892   -0.3997    9.7849 C.ar      1 <0>        -0.0919
     20 C15        -3.4385   -0.4234    8.8870 C.ar      1 <0>        -0.1478
     21 C16        -3.2901    0.1517    7.6330 C.ar      1 <0>         0.1251
     22 O3         -4.3208    0.1292    6.7476 O.3       1 <0>        -0.4928
     23 C17        -1.2333    3.2653    1.2283 C.2       1 <0>         0.5620
     24 O4         -1.2150    3.9469    0.2220 O.2       1 <0>        -0.5217
     25 N3         -0.6619    2.0446    1.2259 N.am      1 <0>        -0.7188
     26 C18        -0.0189    1.5392    0.0105 C.3       1 <0>         0.1465
     27 C19         1.4839    1.8909   -0.0020 C.3       1 <0>        -0.0955
     28 C20         2.1617    0.7099   -0.6632 C.ar      1 <0>        -0.0922
     29 C21         3.4234    0.5972   -1.2230 C.ar      1 <0>        -0.1054
     30 C22         3.8332   -0.5992   -1.7779 C.ar      1 <0>        -0.1161
     31 C23         2.9816   -1.6883   -1.7756 C.ar      1 <0>        -0.1193
     32 C24         1.7232   -1.5779   -1.2176 C.ar      1 <0>        -0.1036
     33 C25         1.3103   -0.3789   -0.6608 C.ar      1 <0>        -0.0995
     34 C26         0.0021   -0.0041    0.0020 C.3       1 <0>        -0.0860
     35 H1         -8.0756    6.7460    2.8904 H         1 <0>         0.0636
     36 H2         -8.4082    6.2079    4.5541 H         1 <0>         0.0719
     37 H3         -7.6809    7.8064    4.2645 H         1 <0>         0.0653
     38 H4         -5.9751    6.1781    5.0309 H         1 <0>         0.0920
     39 H5         -6.7393    4.6738    2.4873 H         1 <0>         0.0646
     40 H6         -5.3924    4.2579    3.5741 H         1 <0>         0.0609
     41 H7         -7.0719    4.1357    4.1510 H         1 <0>         0.0700
     42 H8         -5.7221    7.2971    2.3177 H         1 <0>         0.4206
     43 H9         -2.4591    5.6464    1.5670 H         1 <0>         0.1513
     44 H10        -1.4565    2.0125    3.6103 H         1 <0>         0.1302
     45 H11        -3.5795    5.1157    5.6451 H         1 <0>         0.1429
     46 H12        -2.9701    3.0412    6.7191 H         1 <0>         0.4066
     47 H13        -2.4043    0.7457    5.1740 H         1 <0>         0.0686
     48 H14        -0.8618    1.4673    5.6921 H         1 <0>         0.0690
     49 H15        -0.1018    1.2272    7.9120 H         1 <0>         0.1292
     50 H16        -0.3724    0.2142   10.1386 H         1 <0>         0.1291
     51 H17        -2.5041   -0.8475   10.7610 H         1 <0>         0.1299
     52 H18        -4.3735   -0.8896    9.1606 H         1 <0>         0.1316
     53 H19        -4.3284   -0.6482    6.1725 H         1 <0>         0.3913
     54 H20        -0.6765    1.5008    2.0290 H         1 <0>         0.3997
     55 H21        -0.5144    1.9249   -0.8804 H         1 <0>         0.1088
     56 H22         1.6552    2.7983   -0.5812 H         1 <0>         0.0837
     57 H23         1.8515    2.0164    1.0165 H         1 <0>         0.0849
     58 H24         4.0892    1.4476   -1.2252 H         1 <0>         0.1214
     59 H25         4.8178   -0.6838   -2.2137 H         1 <0>         0.1253
     60 H26         3.3002   -2.6245   -2.2097 H         1 <0>         0.1252
     61 H27         1.0586   -2.4293   -1.2158 H         1 <0>         0.1210
     62 H28        -0.0290   -0.3884    1.0216 H         1 <0>         0.0847
     63 H29        -0.8394   -0.3906   -0.5730 H         1 <0>         0.0851
@<TRIPOS>BOND
     1    1    2 1
     2    1   35 1
     3    1   36 1
     4    1   37 1
     5    2    3 1
     6    2    4 1
     7    2   38 1
     8    3   39 1
     9    3   40 1
    10    3   41 1
    11    4    5 1
    12    4   42 1
    13    5    6 2
    14    5    7 2
    15    5    8 1
    16    8   13 ar
    17    8    9 ar
    18    9   10 ar
    19    9   43 1
    20   10   11 ar
    21   10   23 1
    22   11   12 ar
    23   11   44 1
    24   12   13 ar
    25   12   14 1
    26   13   45 1
    27   14   15 1
    28   14   46 1
    29   15   16 1
    30   15   47 1
    31   15   48 1
    32   16   21 ar
    33   16   17 ar
    34   17   18 ar
    35   17   49 1
    36   18   19 ar
    37   18   50 1
    38   19   20 ar
    39   19   51 1
    40   20   21 ar
    41   20   52 1
    42   21   22 1
    43   22   53 1
    44   23   24 2
    45   23   25 am
    46   25   26 1
    47   25   54 1
    48   26   34 1
    49   26   27 1
    50   26   55 1
    51   27   28 1
    52   27   56 1
    53   27   57 1
    54   28   33 ar
    55   28   29 ar
    56   29   30 ar
    57   29   58 1
    58   30   31 ar
    59   30   59 1
    60   31   32 ar
    61   31   60 1
    62   32   33 ar
    63   32   61 1
    64   33   34 1
    65   34   62 1
    66   34   63 1
@<TRIPOS>MOLECULE
ZINC27496285
   49    50     0     0     0
SMALL
USER_CHARGES
(Z)-N-[(1R)-1-[(4-acetamidophenyl)carbamothioylamino]-2,2,2-trichloro-ethyl]-3-phenyl-prop-2-enamide
@<TRIPOS>ATOM
      1 C1         -5.6474    0.8012   -6.5751 C.3       1 <0>        -0.1728
      2 C2         -5.3934    2.1228   -5.8969 C.2       1 <0>         0.5122
      3 O1         -6.2448    2.9866   -5.9135 O.2       1 <0>        -0.5318
      4 N1         -4.2222    2.3430   -5.2673 N.am      1 <0>        -0.6885
      5 C3         -3.9309    3.6136   -4.7542 C.ar      1 <0>         0.1596
      6 C4         -4.3571    4.7496   -5.4296 C.ar      1 <0>        -0.1198
      7 C5         -4.0749    6.0016   -4.9210 C.ar      1 <0>        -0.0984
      8 C6         -3.3554    6.1252   -3.7397 C.ar      1 <0>         0.1070
      9 C7         -2.9243    4.9892   -3.0672 C.ar      1 <0>        -0.0469
     10 C8         -3.2110    3.7371   -3.5731 C.ar      1 <0>        -0.1395
     11 N2         -3.0649    7.3954   -3.2262 N.pl3     1 <0>        -0.6375
     12 C9         -1.8196    7.6799   -2.7964 C.2       1 <0>         0.5606
     13 S1         -0.6194    6.4592   -2.7815 S.2       1 <0>        -0.5660
     14 N3         -1.5191    8.9255   -2.3782 N.pl3     1 <0>        -0.7068
     15 C10        -0.1655    9.2347   -1.9110 C.3       1 <0>         0.3591
     16 H1          0.3728    8.2871   -1.7619 H         1 <0>         0.2020
     17 C11        -0.2458   10.0526   -0.6205 C.3       1 <0>         0.1188
     18 Cl1        -1.1144    9.1012    0.6410 Cl        1 <0>        -0.0618
     19 Cl2         1.4201   10.4332   -0.0455 Cl        1 <0>        -0.0542
     20 Cl3        -1.1379   11.5873   -0.9362 Cl        1 <0>        -0.0916
     21 N4          0.5402   10.0078   -2.9360 N.am      1 <0>        -0.7430
     22 C12         1.4873    9.4179   -3.6920 C.2       1 <0>         0.5401
     23 O2          1.7562    8.2431   -3.5232 O.2       1 <0>        -0.4652
     24 C13         2.1926   10.1906   -4.7165 C.2       1 <0>        -0.2211
     25 C14         3.2488    9.6525   -5.3586 C.2       1 <0>        -0.0117
     26 C15         3.8477    8.4000   -4.8691 C.ar      1 <0>        -0.0734
     27 C16         4.1118    8.2331   -3.5061 C.ar      1 <0>        -0.0475
     28 C17         4.6686    7.0551   -3.0547 C.ar      1 <0>        -0.1237
     29 C18         4.9761    6.0438   -3.9481 C.ar      1 <0>        -0.1057
     30 C19         4.7221    6.2034   -5.2992 C.ar      1 <0>        -0.1288
     31 C20         4.1608    7.3734   -5.7654 C.ar      1 <0>        -0.0972
     32 H2         -4.7677    0.1520   -6.4542 H         1 <0>         0.0799
     33 H3         -5.8351    0.9687   -7.6459 H         1 <0>         0.0993
     34 H4         -6.5248    0.3183   -6.1202 H         1 <0>         0.0985
     35 H5         -3.4951    1.5251   -5.1564 H         1 <0>         0.4367
     36 H6         -4.9129    4.6536   -6.3506 H         1 <0>         0.1330
     37 H7         -4.4102    6.8851   -5.4440 H         1 <0>         0.1250
     38 H8         -2.3644    5.0852   -2.1487 H         1 <0>         0.1488
     39 H9         -2.8757    2.8537   -3.0502 H         1 <0>         0.1305
     40 H10        -3.8531    8.1609   -3.1737 H         1 <0>         0.4278
     41 H11        -2.2902    9.7099   -2.3877 H         1 <0>         0.4170
     42 H12         0.2971   11.0697   -3.0886 H         1 <0>         0.4196
     43 H13         1.8606   11.2101   -4.9622 H         1 <0>         0.1346
     44 H14         3.6631   10.1493   -6.2483 H         1 <0>         0.1402
     45 H15         3.8769    9.0232   -2.8083 H         1 <0>         0.1100
     46 H16         4.8694    6.9230   -2.0017 H         1 <0>         0.1178
     47 H17         5.4162    5.1252   -3.5891 H         1 <0>         0.1176
     48 H18         4.9645    5.4096   -5.9903 H         1 <0>         0.1189
     49 H19         3.9632    7.4965   -6.8200 H         1 <0>         0.1181
@<TRIPOS>BOND
     1    1    2 1
     2    1   32 1
     3    1   33 1
     4    1   34 1
     5    2    3 2
     6    2    4 am
     7    4    5 1
     8    4   35 1
     9    5   10 ar
    10    5    6 ar
    11    6    7 ar
    12    6   36 1
    13    7    8 ar
    14    7   37 1
    15    8    9 ar
    16    8   11 1
    17    9   10 ar
    18    9   38 1
    19   10   39 1
    20   11   12 1
    21   11   40 1
    22   12   13 2
    23   12   14 1
    24   14   15 1
    25   14   41 1
    26   15   16 1
    27   15   17 1
    28   15   21 1
    29   17   18 1
    30   17   19 1
    31   17   20 1
    32   21   22 am
    33   21   42 1
    34   22   23 2
    35   22   24 1
    36   24   25 2
    37   24   43 1
    38   25   26 1
    39   25   44 1
    40   26   31 ar
    41   26   27 ar
    42   27   28 ar
    43   27   45 1
    44   28   29 ar
    45   28   46 1
    46   29   30 ar
    47   29   47 1
    48   30   31 ar
    49   30   48 1
    50   31   49 1
@<TRIPOS>MOLECULE
ZINC40702056
   52    55     0     0     0
SMALL
USER_CHARGES

@<TRIPOS>ATOM
      1 C1         -0.0116    0.8454    3.0910 C.3       1 <0>        -0.1793
      2 C2          0.1739    0.8022    1.5729 C.3       1 <0>         0.1411
      3 N1          0.7080   -0.5051    1.1831 N.pl3     1 <0>        -0.6063
      4 C3         -0.1589   -1.5734    0.9591 C.ar      1 <0>         0.1801
      5 C4         -0.6703   -1.8021   -0.3009 C.ar      1 <0>        -0.1213
      6 C5         -1.5367   -2.8654   -0.5348 C.ar      1 <0>        -0.1110
      7 C6         -1.9032   -3.7079    0.4704 C.ar      1 <0>        -0.1058
      8 C7         -1.4042   -3.5102    1.7690 C.ar      1 <0>        -0.0463
      9 C8         -0.5167   -2.4345    2.0188 C.ar      1 <0>        -0.0541
     10 C9         -0.0153   -2.2413    3.3153 C.ar      1 <0>        -0.0842
     11 C10        -0.3823   -3.0915    4.3136 C.ar      1 <0>        -0.1268
     12 C11        -1.2503   -4.1535    4.0678 C.ar      1 <0>        -0.1097
     13 C12        -1.7658   -4.3638    2.8257 C.ar      1 <0>        -0.1160
     14 C13         2.0795   -0.6802    1.0367 C.ar      1 <0>         0.3748
     15 C14         2.7131   -0.3445   -0.1613 C.ar      1 <0>         0.0792
     16 C15         4.0923   -0.5399   -0.2547 C.ar      1 <0>         0.3861
     17 N2          4.7457   -1.0351    0.7937 N.ar      1 <0>        -0.5520
     18 C16         4.1092   -1.3390    1.9067 C.ar      1 <0>         0.2986
     19 N3          2.8097   -1.1653    2.0382 N.ar      1 <0>        -0.5202
     20 N4          4.7723   -0.2228   -1.4245 N.pl3     1 <0>        -0.5105
     21 N5          6.1564   -0.4233   -1.5065 N.am      1 <0>        -0.5049
     22 C17         6.8159   -0.1157   -2.6410 C.2       1 <0>         0.5474
     23 O1          6.2096    0.3356   -3.5931 O.2       1 <0>        -0.5099
     24 C18         8.2760   -0.3272   -2.7275 C.ar      1 <0>        -0.1068
     25 C19         8.9745   -0.8508   -1.6379 C.ar      1 <0>        -0.0796
     26 C20        10.3369   -1.0461   -1.7253 C.ar      1 <0>        -0.1105
     27 C21        11.0125   -0.7245   -2.8897 C.ar      1 <0>        -0.0832
     28 C22        10.3279   -0.2050   -3.9731 C.ar      1 <0>        -0.0987
     29 C23         8.9625   -0.0096   -3.9015 C.ar      1 <0>        -0.0403
     30 Br1         8.0262    0.6930   -5.3867 Br        1 <0>        -0.0060
     31 N6          1.9832    0.1749   -1.2424 N.pl3     1 <0>        -0.8628
     32 H1          0.9497    0.6854    3.5792 H         1 <0>         0.0616
     33 H2         -0.4089    1.8181    3.3809 H         1 <0>         0.0617
     34 H3         -0.7078    0.0634    3.3943 H         1 <0>         0.0633
     35 H4         -0.7874    0.9622    1.0846 H         1 <0>         0.0739
     36 H5          0.8701    1.5842    1.2695 H         1 <0>         0.0704
     37 H6         -0.3956   -1.1482   -1.1153 H         1 <0>         0.1206
     38 H7         -1.9251   -3.0250   -1.5298 H         1 <0>         0.1246
     39 H8         -2.5773   -4.5275    0.2696 H         1 <0>         0.1268
     40 H9          0.6586   -1.4226    3.5202 H         1 <0>         0.1429
     41 H10         0.0053   -2.9408    5.3103 H         1 <0>         0.1208
     42 H11        -1.5257   -4.8138    4.8769 H         1 <0>         0.1211
     43 H12        -2.4384   -5.1903    2.6500 H         1 <0>         0.1257
     44 H13         4.6705   -1.7392    2.7380 H         1 <0>         0.1969
     45 H14         4.2885    0.1373   -2.1843 H         1 <0>         0.4385
     46 H15         6.6402   -0.7834   -0.7468 H         1 <0>         0.4309
     47 H16         8.4491   -1.1020   -0.7284 H         1 <0>         0.1360
     48 H17        10.8781   -1.4507   -0.8828 H         1 <0>         0.1398
     49 H18        12.0795   -0.8796   -2.9523 H         1 <0>         0.1400
     50 H19        10.8612    0.0441   -4.8785 H         1 <0>         0.1425
     51 H20         1.0406    0.3785   -1.1381 H         1 <0>         0.4055
     52 H21         2.4217    0.3301   -2.0936 H         1 <0>         0.3954
@<TRIPOS>BOND
     1    1    2 1
     2    1   32 1
     3    1   33 1
     4    1   34 1
     5    2    3 1
     6    2   35 1
     7    2   36 1
     8    3    4 1
     9    3   14 1
    10    4    9 ar
    11    4    5 ar
    12    5    6 ar
    13    5   37 1
    14    6    7 ar
    15    6   38 1
    16    7    8 ar
    17    7   39 1
    18    8   13 ar
    19    8    9 ar
    20    9   10 ar
    21   10   11 ar
    22   10   40 1
    23   11   12 ar
    24   11   41 1
    25   12   13 ar
    26   12   42 1
    27   13   43 1
    28   14   19 ar
    29   14   15 ar
    30   15   16 ar
    31   15   31 1
    32   16   17 ar
    33   16   20 1
    34   17   18 ar
    35   18   19 ar
    36   18   44 1
    37   20   21 1
    38   20   45 1
    39   21   22 am
    40   21   46 1
    41   22   23 2
    42   22   24 1
    43   24   29 ar
    44   24   25 ar
    45   25   26 ar
    46   25   47 1
    47   26   27 ar
    48   26   48 1
    49   27   28 ar
    50   27   49 1
    51   28   29 ar
    52   28   50 1
    53   29   30 1
    54   31   51 1
    55   31   52 1
@<TRIPOS>MOLECULE
ZINC12799534
   52    55     0     0     0
SMALL
USER_CHARGES

@<TRIPOS>ATOM
      1 C1         -0.0163    1.3513    0.0095 C.2       1 <0>        -0.1594
      2 C2          1.1833    2.0380    0.0017 C.2       1 <0>        -0.1389
      3 C3          2.3426    1.3358   -0.0131 C.2       1 <0>        -0.1881
      4 S1          1.7535   -0.3495   -0.0166 S.3       1 <0>         0.0435
      5 C4          0.0021   -0.0041    0.0020 C.2       1 <0>        -0.1630
      6 C5          3.7608    1.8454   -0.0244 C.3       1 <0>         0.2201
      7 H1          3.7796    2.8753    0.3322 H         1 <0>         0.1130
      8 C6          4.3033    1.7902   -1.4292 C.ar      1 <0>        -0.0836
      9 C7          4.7602    0.5924   -1.9466 C.ar      1 <0>        -0.0604
     10 C8          5.2576    0.5404   -3.2349 C.ar      1 <0>        -0.1520
     11 C9          5.2980    1.6887   -4.0076 C.ar      1 <0>         0.1024
     12 C10         4.8401    2.8877   -3.4884 C.ar      1 <0>        -0.1533
     13 C11         4.3383    2.9362   -2.2016 C.ar      1 <0>        -0.0775
     14 F1          5.7844    1.6391   -5.2671 F         1 <0>        -0.1388
     15 N1          4.5890    1.0081    0.8536 N.3       1 <0>        -0.6564
     16 C12         4.5035    1.4622    2.2481 C.3       1 <0>         0.0441
     17 C13         5.3641    0.5813    3.1168 C.2       1 <0>         0.5086
     18 O1          5.9872   -0.3345    2.6230 O.2       1 <0>        -0.4801
     19 N2          5.4412    0.8114    4.4426 N.am      1 <0>        -0.6216
     20 C14         6.2330    0.0009    5.2419 C.2       1 <0>         0.0387
     21 C15         6.4271    0.0837    6.6117 C.2       1 <0>        -0.2375
     22 C16         7.3145   -0.8939    7.2171 C.2       1 <0>        -0.0625
     23 C17         7.8454   -1.7748    6.3418 C.2       1 <0>        -0.2250
     24 S2          7.1712   -1.3108    4.7737 S.3       1 <0>         0.2905
     25 C18         8.7909   -2.8935    6.6530 C.3       1 <0>        -0.0351
     26 C19         9.3661   -2.6618    8.0581 C.3       1 <0>        -0.1143
     27 C20         8.2164   -2.3411    9.0176 C.3       1 <0>        -0.1195
     28 C21         7.6442   -0.9576    8.7011 C.3       1 <0>        -0.0602
     29 C22         5.7648    1.1153    7.4161 C.2       1 <0>         0.5859
     30 O2          4.6719    0.8971    7.9053 O.2       1 <0>        -0.5348
     31 N3          6.3662    2.3052    7.6137 N.am      1 <0>        -0.8483
     32 H2         -0.9542    1.8866    0.0258 H         1 <0>         0.1363
     33 H3          1.1967    3.1179    0.0070 H         1 <0>         0.1344
     34 H4         -0.8275   -0.6955    0.0065 H         1 <0>         0.1878
     35 H5          4.7289   -0.3030   -1.3435 H         1 <0>         0.1304
     36 H6          5.6148   -0.3953   -3.6388 H         1 <0>         0.1373
     37 H7          4.8714    3.7841   -4.0901 H         1 <0>         0.1370
     38 H8          3.9769    3.8705   -1.7980 H         1 <0>         0.1327
     39 H9          4.3320    0.0356    0.7736 H         1 <0>         0.3570
     40 H10         4.8526    2.4925    2.3167 H         1 <0>         0.1166
     41 H11         3.4687    1.4058    2.5858 H         1 <0>         0.0754
     42 H12         4.9429    1.5438    4.8376 H         1 <0>         0.4185
     43 H13         8.2574   -3.8437    6.6265 H         1 <0>         0.0821
     44 H14         9.5996   -2.9051    5.9223 H         1 <0>         0.0812
     45 H15         9.8820   -3.5612    8.3943 H         1 <0>         0.0738
     46 H16        10.0649   -1.8257    8.0332 H         1 <0>         0.0678
     47 H17         7.4328   -3.0907    8.9071 H         1 <0>         0.0672
     48 H18         8.5862   -2.3542   10.0428 H         1 <0>         0.0701
     49 H19         8.3817   -0.1929    8.9450 H         1 <0>         0.0765
     50 H20         6.7380   -0.7942    9.2844 H         1 <0>         0.0749
     51 H21         7.2372    2.4790    7.2238 H         1 <0>         0.4035
     52 H22         5.9280    2.9876    8.1458 H         1 <0>         0.4027
@<TRIPOS>BOND
     1    1    5 2
     2    1    2 1
     3    1   32 1
     4    2    3 2
     5    2   33 1
     6    3    4 1
     7    3    6 1
     8    4    5 1
     9    5   34 1
    10    6    7 1
    11    6    8 1
    12    6   15 1
    13    8   13 ar
    14    8    9 ar
    15    9   10 ar
    16    9   35 1
    17   10   11 ar
    18   10   36 1
    19   11   12 ar
    20   11   14 1
    21   12   13 ar
    22   12   37 1
    23   13   38 1
    24   15   16 1
    25   15   39 1
    26   16   17 1
    27   16   40 1
    28   16   41 1
    29   17   18 2
    30   17   19 am
    31   19   20 1
    32   19   42 1
    33   20   24 1
    34   20   21 2
    35   21   22 1
    36   21   29 1
    37   22   28 1
    38   22   23 2
    39   23   24 1
    40   23   25 1
    41   25   26 1
    42   25   43 1
    43   25   44 1
    44   26   27 1
    45   26   45 1
    46   26   46 1
    47   27   28 1
    48   27   47 1
    49   27   48 1
    50   28   49 1
    51   28   50 1
    52   29   30 2
    53   29   31 am
    54   31   51 1
    55   31   52 1
@<TRIPOS>MOLECULE
ZINC00899293
   49    51     0     0     0
SMALL
USER_CHARGES
N-[2-(2-chlorophenyl)-1-[(4-sulfamoylphenyl)carbamoyl]vinyl]benzamide
@<TRIPOS>ATOM
      1 C1          8.8692    5.4616    0.1188 C.ar      1 <0>        -0.0851
      2 C2          8.9164    4.0800    0.1777 C.ar      1 <0>        -0.1251
      3 C3          7.7518    3.3436    0.1120 C.ar      1 <0>        -0.0524
      4 C4          6.5238    3.9953   -0.0146 C.ar      1 <0>        -0.1407
      5 C5          6.4838    5.3891   -0.0792 C.ar      1 <0>        -0.0847
      6 C6          7.6555    6.1138   -0.0071 C.ar      1 <0>        -0.1254
      7 C7          5.2720    3.2126   -0.0861 C.2       1 <0>         0.5573
      8 O1          5.3103    1.9986   -0.0347 O.2       1 <0>        -0.4951
      9 N1          4.0880    3.8449   -0.2083 N.am      1 <0>        -0.6511
     10 C8          2.8978    3.1120   -0.1785 C.2       1 <0>         0.0964
     11 C9          1.7069    3.7550   -0.1815 C.2       1 <0>        -0.1314
     12 C10         0.4565    2.9863   -0.2738 C.ar      1 <0>        -0.0506
     13 C11         0.3677    1.8885   -1.1363 C.ar      1 <0>        -0.1057
     14 C12        -0.8076    1.1729   -1.2168 C.ar      1 <0>        -0.1075
     15 C13        -1.9010    1.5408   -0.4513 C.ar      1 <0>        -0.0996
     16 C14        -1.8209    2.6214    0.4087 C.ar      1 <0>        -0.1090
     17 C15        -0.6513    3.3489    0.5014 C.ar      1 <0>        -0.0221
     18 Cl1        -0.5548    4.7094    1.5753 Cl        1 <0>        -0.0611
     19 C16         2.9398    1.6435   -0.1438 C.2       1 <0>         0.5907
     20 O2          3.1791    1.0175   -1.1594 O.2       1 <0>        -0.4922
     21 N2          2.7134    0.9900    1.0130 N.am      1 <0>        -0.6610
     22 C17         2.8196   -0.4032    1.0612 C.ar      1 <0>         0.2162
     23 C18         3.7415   -1.0593    0.2555 C.ar      1 <0>        -0.1374
     24 C19         3.8475   -2.4352    0.3094 C.ar      1 <0>         0.0008
     25 C20         3.0295   -3.1606    1.1561 C.ar      1 <0>        -0.6941
     26 C21         2.1067   -2.5110    1.9554 C.ar      1 <0>         0.0020
     27 C22         1.9995   -1.1349    1.9106 C.ar      1 <0>        -0.1681
     28 S1          3.1637   -4.9164    1.2173 S.o2      1 <0>         2.7027
     29 O3          4.4754   -5.2391    0.7759 O.2       1 <0>        -0.9638
     30 O4          2.6668   -5.3178    2.4866 O.2       1 <0>        -0.9650
     31 N3          2.1200   -5.5270    0.0858 N.pl3     1 <0>        -1.2505
     32 H1          9.7839    6.0334    0.1710 H         1 <0>         0.1317
     33 H2          9.8671    3.5771    0.2756 H         1 <0>         0.1345
     34 H3          7.7900    2.2652    0.1580 H         1 <0>         0.1386
     35 H4          5.5373    5.8993   -0.1813 H         1 <0>         0.1258
     36 H5          7.6256    7.1924   -0.0528 H         1 <0>         0.1332
     37 H6          4.0616    4.8084   -0.3170 H         1 <0>         0.4191
     38 H7          1.6748    4.8325   -0.1162 H         1 <0>         0.1463
     39 H8          1.2179    1.6026   -1.7380 H         1 <0>         0.1430
     40 H9         -0.8773    0.3252   -1.8824 H         1 <0>         0.1317
     41 H10        -2.8202    0.9783   -0.5227 H         1 <0>         0.1349
     42 H11        -2.6769    2.8993    1.0058 H         1 <0>         0.1373
     43 H12         2.4768    1.4863    1.8121 H         1 <0>         0.4145
     44 H13         4.3776   -0.4937   -0.4093 H         1 <0>         0.1547
     45 H14         4.5672   -2.9456   -0.3135 H         1 <0>         0.1459
     46 H15         1.4693   -3.0805    2.6156 H         1 <0>         0.1471
     47 H16         1.2791   -0.6281    2.5355 H         1 <0>         0.1367
     48 H17         1.5835   -4.9254   -0.4538 H         1 <0>         0.4168
     49 H18         2.0452   -6.4862   -0.0375 H         1 <0>         0.4207
@<TRIPOS>BOND
     1    1    6 ar
     2    1    2 ar
     3    1   32 1
     4    2    3 ar
     5    2   33 1
     6    3    4 ar
     7    3   34 1
     8    4    5 ar
     9    4    7 1
    10    5    6 ar
    11    5   35 1
    12    6   36 1
    13    7    8 2
    14    7    9 am
    15    9   10 1
    16    9   37 1
    17   10   11 2
    18   10   19 1
    19   11   12 1
    20   11   38 1
    21   12   17 ar
    22   12   13 ar
    23   13   14 ar
    24   13   39 1
    25   14   15 ar
    26   14   40 1
    27   15   16 ar
    28   15   41 1
    29   16   17 ar
    30   16   42 1
    31   17   18 1
    32   19   20 2
    33   19   21 am
    34   21   22 1
    35   21   43 1
    36   22   27 ar
    37   22   23 ar
    38   23   24 ar
    39   23   44 1
    40   24   25 ar
    41   24   45 1
    42   25   26 ar
    43   25   28 1
    44   26   27 ar
    45   26   46 1
    46   27   47 1
    47   28   29 2
    48   28   30 2
    49   28   31 1
    50   31   48 1
    51   31   49 1
@<TRIPOS>MOLECULE
ZINC13977187
   45    47     0     0     0
SMALL
USER_CHARGES
(E)-3-(4-fluorophenyl)-N-[[(3-hydroxynaphthalene-2-carbonyl)amino]carbamothioyl]prop-2-enamide
@<TRIPOS>ATOM
      1 C1          2.1807    9.6494    0.0302 C.ar      1 <0>        -0.1151
      2 C2          3.3864   10.3491    0.0229 C.ar      1 <0>        -0.0953
      3 C3          4.5782    9.6922    0.0085 C.ar      1 <0>        -0.1130
      4 C4          4.5994    8.2866    0.0017 C.ar      1 <0>        -0.0122
      5 C5          5.8146    7.5816   -0.0132 C.ar      1 <0>        -0.1356
      6 C6          5.8115    6.2180   -0.0200 C.ar      1 <0>         0.1648
      7 C7          4.5964    5.5004   -0.0123 C.ar      1 <0>        -0.1520
      8 C8          3.3850    6.1721   -0.0029 C.ar      1 <0>        -0.0447
      9 C9          3.3724    7.5743    0.0096 C.ar      1 <0>        -0.0714
     10 C10         2.1606    8.2890    0.0240 C.ar      1 <0>        -0.0967
     11 C11         4.6164    4.0247   -0.0204 C.2       1 <0>         0.5676
     12 O1          5.6775    3.4312   -0.0337 O.2       1 <0>        -0.4929
     13 N1          3.4585    3.3350   -0.0131 N.am      1 <0>        -0.5527
     14 N2          3.4775    1.9341   -0.0208 N.pl3     1 <0>        -0.4548
     15 C12         2.3196    1.2444   -0.0134 C.2       1 <0>         0.5159
     16 S1          2.3429   -0.4674   -0.0228 S.2       1 <0>        -0.4570
     17 N3          1.1435    1.9024    0.0014 N.am      1 <0>        -0.6435
     18 C13        -0.0144    1.2127    0.0087 C.2       1 <0>         0.5262
     19 O2          0.0021   -0.0041    0.0020 O.2       1 <0>        -0.4084
     20 C14        -1.2905    1.9265    0.0186 C.2       1 <0>        -0.2265
     21 C15        -2.4501    1.2358    0.0204 C.2       1 <0>         0.0086
     22 C16        -3.7337    1.9538    0.0304 C.ar      1 <0>        -0.0962
     23 C17        -3.7562    3.3527    0.0439 C.ar      1 <0>        -0.0688
     24 C18        -4.9621    4.0192    0.0489 C.ar      1 <0>        -0.1570
     25 C19        -6.1518    3.3064    0.0506 C.ar      1 <0>         0.1166
     26 C20        -6.1366    1.9197    0.0421 C.ar      1 <0>        -0.1558
     27 C21        -4.9376    1.2409    0.0322 C.ar      1 <0>        -0.0578
     28 F1         -7.3309    3.9660    0.0612 F         1 <0>        -0.1339
     29 O3          6.9894    5.5439   -0.0349 O.3       1 <0>        -0.4771
     30 H1          1.2489   10.1953    0.0413 H         1 <0>         0.1297
     31 H2          3.3745   11.4290    0.0285 H         1 <0>         0.1300
     32 H3          5.5039   10.2485    0.0023 H         1 <0>         0.1343
     33 H4          6.7510    8.1196   -0.0189 H         1 <0>         0.1454
     34 H5          2.4569    5.6199   -0.0011 H         1 <0>         0.1309
     35 H6          1.2189    7.7602    0.0305 H         1 <0>         0.1321
     36 H7          2.6120    3.8085   -0.0024 H         1 <0>         0.4160
     37 H8          4.3241    1.4606   -0.0314 H         1 <0>         0.4587
     38 H9          1.1303    2.8723    0.0067 H         1 <0>         0.4016
     39 H10        -1.3052    3.0064    0.0246 H         1 <0>         0.1330
     40 H11        -2.4355    0.1559    0.0144 H         1 <0>         0.1448
     41 H12        -2.8304    3.9089    0.0467 H         1 <0>         0.1376
     42 H13        -4.9809    5.0990    0.0556 H         1 <0>         0.1410
     43 H14        -7.0666    1.3706    0.0435 H         1 <0>         0.1427
     44 H15        -4.9271    0.1610    0.0263 H         1 <0>         0.1428
     45 H16         7.3224    5.3533   -0.9226 H         1 <0>         0.3982
@<TRIPOS>BOND
     1    1   10 ar
     2    1    2 ar
     3    1   30 1
     4    2    3 ar
     5    2   31 1
     6    3    4 ar
     7    3   32 1
     8    4    9 ar
     9    4    5 ar
    10    5    6 ar
    11    5   33 1
    12    6    7 ar
    13    6   29 1
    14    7    8 ar
    15    7   11 1
    16    8    9 ar
    17    8   34 1
    18    9   10 ar
    19   10   35 1
    20   11   12 2
    21   11   13 am
    22   13   14 1
    23   13   36 1
    24   14   15 1
    25   14   37 1
    26   15   16 2
    27   15   17 1
    28   17   18 am
    29   17   38 1
    30   18   19 2
    31   18   20 1
    32   20   21 2
    33   20   39 1
    34   21   22 1
    35   21   40 1
    36   22   27 ar
    37   22   23 ar
    38   23   24 ar
    39   23   41 1
    40   24   25 ar
    41   24   42 1
    42   25   26 ar
    43   25   28 1
    44   26   27 ar
    45   26   43 1
    46   27   44 1
    47   29   45 1
@<TRIPOS>MOLECULE
ZINC36593171
   60    61     0     0     0
SMALL
USER_CHARGES

@<TRIPOS>ATOM
      1 C1          1.4919    3.3243    1.9730 C.3       1 <0>        -0.1711
      2 C2          0.2916    2.4210    1.6831 C.3       1 <0>         0.1690
      3 C3          0.3430    1.1953    2.5974 C.3       1 <0>        -0.1657
      4 C4         -1.0030    3.1949    1.9399 C.3       1 <0>        -0.1599
      5 N1          0.3326    1.9885    0.2840 N.am      1 <0>        -0.7187
      6 C5          1.3874    1.2851   -0.1733 C.2       1 <0>         0.5279
      7 O1          2.3027    1.0102    0.5734 O.2       1 <0>        -0.4905
      8 C6          1.4296    0.8403   -1.6126 C.3       1 <0>         0.1621
      9 H1          0.9617   -0.1400   -1.7037 H         1 <0>         0.1325
     10 C7          0.6854    1.8335   -2.4674 C.ar      1 <0>        -0.1636
     11 C8          1.3825    2.8132   -3.1583 C.ar      1 <0>         0.1570
     12 C9          0.6977    3.7272   -3.9449 C.ar      1 <0>        -0.1624
     13 C10        -0.6841    3.6613   -4.0409 C.ar      1 <0>         0.1473
     14 C11        -1.3812    2.6810   -3.3508 C.ar      1 <0>        -0.1649
     15 C12        -0.6960    1.7643   -2.5676 C.ar      1 <0>         0.1122
     16 O2         -1.3786    0.8008   -1.8950 O.3       1 <0>        -0.4856
     17 O3         -1.3553    4.5575   -4.8111 O.3       1 <0>        -0.4910
     18 O4          2.7366    2.8779   -3.0641 O.3       1 <0>        -0.4683
     19 N2          2.8229    0.7598   -2.0582 N.am      1 <0>        -0.5804
     20 C13         3.1174    0.2111   -3.2535 C.2       1 <0>         0.5556
     21 O5          4.2494   -0.1658   -3.4869 O.2       1 <0>        -0.5034
     22 C14         2.0648    0.0679   -4.2800 C.ar      1 <0>        -0.1747
     23 C15         0.7203    0.2081   -3.9293 C.ar      1 <0>        -0.1116
     24 C16        -0.2578    0.0734   -4.8910 C.ar      1 <0>        -0.1610
     25 C17         0.0911   -0.2012   -6.2046 C.ar      1 <0>         0.1305
     26 C18         1.4245   -0.3414   -6.5582 C.ar      1 <0>        -0.1687
     27 C19         2.4110   -0.2025   -5.6056 C.ar      1 <0>        -0.0268
     28 F1         -0.8716   -0.3332   -7.1432 F         1 <0>        -0.1335
     29 C20         3.8959    1.2756   -1.2045 C.3       1 <0>         0.1897
     30 C21         4.2051    0.2590   -0.1037 C.3       1 <0>        -0.1278
     31 C22         5.1503    1.5110   -2.0483 C.3       1 <0>        -0.1631
     32 C23         3.4530    2.5955   -0.5700 C.3       1 <0>        -0.1937
     33 H2          2.4142    2.7729    1.7901 H         1 <0>         0.0852
     34 H3          1.4553    4.1975    1.3216 H         1 <0>         0.0558
     35 H4          1.4614    3.6461    3.0140 H         1 <0>         0.0661
     36 H5          0.3125    1.5171    3.6384 H         1 <0>         0.0665
     37 H6         -0.5121    0.5518    2.3909 H         1 <0>         0.0560
     38 H7          1.2653    0.6439    2.4145 H         1 <0>         0.0807
     39 H8         -1.0396    4.0681    1.2885 H         1 <0>         0.0632
     40 H9         -1.8581    2.5513    1.7334 H         1 <0>         0.0631
     41 H10        -1.0335    3.5167    2.9809 H         1 <0>         0.0789
     42 H11        -0.3994    2.2084   -0.3133 H         1 <0>         0.3884
     43 H12         1.2405    4.4907   -4.4824 H         1 <0>         0.1436
     44 H13        -2.4574    2.6298   -3.4253 H         1 <0>         0.1474
     45 H14        -1.6536    1.0619   -1.0054 H         1 <0>         0.3932
     46 H15        -1.4754    4.2757   -5.7283 H         1 <0>         0.3989
     47 H16         3.2021    2.3056   -3.6893 H         1 <0>         0.3812
     48 H17         0.4475    0.4213   -2.9063 H         1 <0>         0.2023
     49 H18        -1.2979    0.1816   -4.6209 H         1 <0>         0.1415
     50 H19         1.6908   -0.5556   -7.5827 H         1 <0>         0.1433
     51 H20         3.4495   -0.3071   -5.8830 H         1 <0>         0.1464
     52 H21         5.0388   -0.3707   -0.4144 H         1 <0>         0.0322
     53 H22         4.4695    0.7855    0.8133 H         1 <0>         0.0618
     54 H23         3.3273   -0.3622    0.0742 H         1 <0>         0.0769
     55 H24         4.9088    2.1699   -2.8823 H         1 <0>         0.0493
     56 H25         5.9215    1.9728   -1.4318 H         1 <0>         0.0581
     57 H26         5.5143    0.5578   -2.4319 H         1 <0>         0.0994
     58 H27         2.4573    2.4770   -0.1425 H         1 <0>         0.0973
     59 H28         4.1550    2.8745    0.2158 H         1 <0>         0.0581
     60 H29         3.4311    3.3752   -1.3313 H         1 <0>         0.0679
@<TRIPOS>BOND
     1    1    2 1
     2    1   33 1
     3    1   34 1
     4    1   35 1
     5    2    3 1
     6    2    4 1
     7    2    5 1
     8    3   36 1
     9    3   37 1
    10    3   38 1
    11    4   39 1
    12    4   40 1
    13    4   41 1
    14    5    6 am
    15    5   42 1
    16    6    7 2
    17    6    8 1
    18    8    9 1
    19    8   10 1
    20    8   19 1
    21   10   15 ar
    22   10   11 ar
    23   11   12 ar
    24   11   18 1
    25   12   13 ar
    26   12   43 1
    27   13   14 ar
    28   13   17 1
    29   14   15 ar
    30   14   44 1
    31   15   16 1
    32   16   45 1
    33   17   46 1
    34   18   47 1
    35   19   20 am
    36   19   29 1
    37   20   21 2
    38   20   22 1
    39   22   27 ar
    40   22   23 ar
    41   23   24 ar
    42   23   48 1
    43   24   25 ar
    44   24   49 1
    45   25   26 ar
    46   25   28 1
    47   26   27 ar
    48   26   50 1
    49   27   51 1
    50   29   30 1
    51   29   31 1
    52   29   32 1
    53   30   52 1
    54   30   53 1
    55   30   54 1
    56   31   55 1
    57   31   56 1
    58   31   57 1
    59   32   58 1
    60   32   59 1
    61   32   60 1
@<TRIPOS>MOLECULE
ZINC25049045
   51    54     0     0     0
SMALL
USER_CHARGES

@<TRIPOS>ATOM
      1 C1         -0.0264    1.4963   -0.0135 C.3       1 <0>        -0.1183
      2 C2         -0.0060   -0.0106   -0.0143 C.ar      1 <0>        -0.0778
      3 C3         -0.0098   -0.7012   -1.2117 C.ar      1 <0>        -0.1221
      4 C4          0.0090   -2.0834   -1.2125 C.ar      1 <0>        -0.1009
      5 C5          0.0320   -2.7750   -0.0158 C.ar      1 <0>        -0.1039
      6 C6          0.0367   -2.0843    1.1817 C.ar      1 <0>        -0.0871
      7 C7          0.0223   -0.7021    1.1823 C.ar      1 <0>        -0.1210
      8 C8          0.0514   -4.2819   -0.0166 C.3       1 <0>         0.2170
      9 H1          0.3962   -4.6403   -0.9865 H         1 <0>         0.0765
     10 C9         -1.3382   -4.8023    0.2463 C.2       1 <0>        -0.1234
     11 C10        -2.2532   -5.2758   -0.6345 C.2       1 <0>        -0.1628
     12 C11        -3.4789   -5.7057   -0.1617 C.2       1 <0>        -0.1571
     13 C12        -3.7296   -5.6412    1.1688 C.2       1 <0>        -0.1897
     14 S1         -2.2036   -4.9626    1.7996 S.3       1 <0>         0.0823
     15 N1          0.9603   -4.7604    1.0336 N.3       1 <0>        -0.6631
     16 C13         1.4707   -6.1011    0.7174 C.3       1 <0>         0.0718
     17 H2          1.6075   -6.1930   -0.3601 H         1 <0>         0.0783
     18 C14         0.4691   -7.1541    1.1959 C.3       1 <0>        -0.1447
     19 C15         2.7917   -6.3123    1.4113 C.2       1 <0>         0.5158
     20 O1          3.2617   -5.4326    2.1014 O.2       1 <0>        -0.5077
     21 N2          3.4507   -7.4788    1.2650 N.am      1 <0>        -0.6674
     22 C16         4.7223   -7.6405    1.8302 C.ar      1 <0>         0.1529
     23 C17         5.6832   -8.3986    1.1708 C.ar      1 <0>        -0.1294
     24 C18         6.9380   -8.5617    1.7224 C.ar      1 <0>        -0.0841
     25 C19         7.2421   -7.9679    2.9381 C.ar      1 <0>         0.0760
     26 C20         6.2791   -7.2058    3.6028 C.ar      1 <0>         0.1095
     27 C21         5.0219   -7.0393    3.0435 C.ar      1 <0>        -0.1066
     28 N3          6.8697   -6.7462    4.7777 N.am      1 <0>        -0.6399
     29 H3          6.4428   -6.1889    5.4470 H         1 <0>         0.4372
     30 C22         8.1337   -7.2070    4.8263 C.2       1 <0>         0.6848
     31 O2          8.9254   -6.9876    5.7241 O.2       1 <0>        -0.5537
     32 N4          8.3891   -7.9473    3.7312 N.am      1 <0>        -0.6412
     33 H4          9.2276   -8.3909    3.5285 H         1 <0>         0.4363
     34 H5          0.9961    1.8735   -0.0295 H         1 <0>         0.0720
     35 H6         -0.5591    1.8529   -0.8951 H         1 <0>         0.0669
     36 H7         -0.5310    1.8523    0.8847 H         1 <0>         0.0676
     37 H8         -0.0278   -0.1609   -2.1467 H         1 <0>         0.1231
     38 H9          0.0053   -2.6230   -2.1480 H         1 <0>         0.1211
     39 H10         0.0543   -2.6246    2.1166 H         1 <0>         0.1311
     40 H11         0.0297   -0.1624    2.1178 H         1 <0>         0.1239
     41 H12        -2.0281   -5.3161   -1.6900 H         1 <0>         0.1280
     42 H13        -4.2258   -6.0871   -0.8423 H         1 <0>         0.1299
     43 H14        -4.6200   -5.9294    1.7079 H         1 <0>         0.1821
     44 H15         1.7180   -4.1103    1.1799 H         1 <0>         0.3669
     45 H16         0.8478   -8.1489    0.9612 H         1 <0>         0.0608
     46 H17         0.3323   -7.0622    2.2734 H         1 <0>         0.0731
     47 H18        -0.4863   -7.0013    0.6940 H         1 <0>         0.0752
     48 H19         3.0446   -8.2064    0.7684 H         1 <0>         0.4151
     49 H20         5.4471   -8.8617    0.2241 H         1 <0>         0.1385
     50 H21         7.6821   -9.1516    1.2078 H         1 <0>         0.1384
     51 H22         4.2765   -6.4465    3.5529 H         1 <0>         0.1498
@<TRIPOS>BOND
     1    1    2 1
     2    1   34 1
     3    1   35 1
     4    1   36 1
     5    2    7 ar
     6    2    3 ar
     7    3    4 ar
     8    3   37 1
     9    4    5 ar
    10    4   38 1
    11    5    6 ar
    12    5    8 1
    13    6    7 ar
    14    6   39 1
    15    7   40 1
    16    8    9 1
    17    8   10 1
    18    8   15 1
    19   10   14 1
    20   10   11 2
    21   11   12 1
    22   11   41 1
    23   12   13 2
    24   12   42 1
    25   13   14 1
    26   13   43 1
    27   15   16 1
    28   15   44 1
    29   16   17 1
    30   16   18 1
    31   16   19 1
    32   18   45 1
    33   18   46 1
    34   18   47 1
    35   19   20 2
    36   19   21 am
    37   21   22 1
    38   21   48 1
    39   22   27 ar
    40   22   23 ar
    41   23   24 ar
    42   23   49 1
    43   24   25 ar
    44   24   50 1
    45   25   32 1
    46   25   26 ar
    47   26   27 ar
    48   26   28 1
    49   27   51 1
    50   28   29 1
    51   28   30 am
    52   30   31 2
    53   30   32 am
    54   32   33 1
@<TRIPOS>MOLECULE
ZINC59385790
   44    46     0     0     0
SMALL
USER_CHARGES

@<TRIPOS>ATOM
      1 C1         -0.0414    1.4926    0.0845 C.3       1 <0>        -0.1360
      2 C2         -0.0106   -0.0130    0.0263 C.2       1 <0>         0.2022
      3 C3         -1.1713   -0.7014    0.0317 C.2       1 <0>        -0.2779
      4 C4         -1.0950   -2.2135   -0.0280 C.3       1 <0>         0.2462
      5 H1         -1.6489   -2.5434   -0.9069 H         1 <0>         0.0934
      6 N1          0.2490   -2.8122   -0.0873 N.am      1 <0>        -0.7100
      7 C5          1.3178   -1.9912   -0.0851 C.2       1 <0>         0.7064
      8 O1          2.4316   -2.4756   -0.1339 O.2       1 <0>        -0.5635
      9 N2          1.1924   -0.6589   -0.0366 N.am      1 <0>        -0.6501
     10 C6         -1.7938   -2.7622    1.1892 C.ar      1 <0>        -0.1232
     11 C7         -1.1855   -2.6836    2.4283 C.ar      1 <0>        -0.0804
     12 C8         -1.8238   -3.1863    3.5456 C.ar      1 <0>        -0.1464
     13 C9         -3.0765   -3.7699    3.4236 C.ar      1 <0>         0.1145
     14 C10        -3.6849   -3.8471    2.1792 C.ar      1 <0>        -0.1410
     15 C11        -3.0447   -3.3383    1.0658 C.ar      1 <0>        -0.0813
     16 O2         -3.7062   -4.2655    4.5212 O.3       1 <0>        -0.4983
     17 C12        -2.4187   -0.0329    0.0915 C.2       1 <0>         0.6186
     18 O3         -3.0787    0.1165   -0.9211 O.2       1 <0>        -0.4845
     19 N3         -2.8753    0.4377    1.2690 N.am      1 <0>        -0.5776
     20 N4         -4.1550    1.0022    1.3490 N.2       1 <0>        -0.1897
     21 C13        -4.5947    1.4554    2.4829 C.2       1 <0>         0.0868
     22 C14        -5.9415    2.0495    2.5670 C.ar      1 <0>        -0.0411
     23 C15        -6.4157    2.5435    3.7848 C.ar      1 <0>        -0.0678
     24 C16        -7.6761    3.0979    3.8569 C.ar      1 <0>        -0.1112
     25 C17        -8.4725    3.1659    2.7255 C.ar      1 <0>        -0.0117
     26 C18        -8.0098    2.6786    1.5151 C.ar      1 <0>        -0.1094
     27 C19        -6.7475    2.1262    1.4274 C.ar      1 <0>        -0.0042
     28 Cl1        -6.1656    1.5220   -0.0924 Cl        1 <0>        -0.0011
     29 Cl2       -10.0583    3.8651    2.8259 Cl        1 <0>        -0.0520
     30 H2          0.9781    1.8778    0.0666 H         1 <0>         0.0855
     31 H3         -0.5907    1.8782   -0.7744 H         1 <0>         0.0979
     32 H4         -0.5339    1.8107    1.0034 H         1 <0>         0.0899
     33 H5          0.3625   -3.7748   -0.1268 H         1 <0>         0.4341
     34 H6          2.0005   -0.1224   -0.0423 H         1 <0>         0.4277
     35 H7         -0.2103   -2.2292    2.5228 H         1 <0>         0.1204
     36 H8         -1.3479   -3.1253    4.5132 H         1 <0>         0.1300
     37 H9         -4.6600   -4.3010    2.0817 H         1 <0>         0.1315
     38 H10        -3.5198   -3.3942    0.0976 H         1 <0>         0.1297
     39 H11        -4.2680   -3.6231    4.9759 H         1 <0>         0.3924
     40 H12        -2.3178    0.3856    2.0611 H         1 <0>         0.3837
     41 H13        -3.9740    1.3974    3.3648 H         1 <0>         0.1270
     42 H14        -5.7964    2.4910    4.6681 H         1 <0>         0.1474
     43 H15        -8.0436    3.4796    4.7980 H         1 <0>         0.1453
     44 H16        -8.6357    2.7347    0.6368 H         1 <0>         0.1477
@<TRIPOS>BOND
     1    1    2 1
     2    1   30 1
     3    1   31 1
     4    1   32 1
     5    2    9 1
     6    2    3 2
     7    3    4 1
     8    3   17 1
     9    4    5 1
    10    4    6 1
    11    4   10 1
    12    6    7 am
    13    6   33 1
    14    7    8 2
    15    7    9 am
    16    9   34 1
    17   10   15 ar
    18   10   11 ar
    19   11   12 ar
    20   11   35 1
    21   12   13 ar
    22   12   36 1
    23   13   14 ar
    24   13   16 1
    25   14   15 ar
    26   14   37 1
    27   15   38 1
    28   16   39 1
    29   17   18 2
    30   17   19 am
    31   19   20 1
    32   19   40 1
    33   20   21 2
    34   21   22 1
    35   21   41 1
    36   22   27 ar
    37   22   23 ar
    38   23   24 ar
    39   23   42 1
    40   24   25 ar
    41   24   43 1
    42   25   26 ar
    43   25   29 1
    44   26   27 ar
    45   26   44 1
    46   27   28 1
@<TRIPOS>MOLECULE
ZINC03291228
   47    48     0     0     0
SMALL
USER_CHARGES
3-(4-acetylphenyl)-1-[2-(4-bromo-2,5-dimethyl-phenyl)sulfanylacetyl]amino-thiourea
@<TRIPOS>ATOM
      1 C1          2.9031   -6.9370    2.6321 C.3       1 <0>        -0.1276
      2 C2          4.2099   -6.3107    2.2183 C.ar      1 <0>        -0.0405
      3 C3          4.2316   -5.0195    1.7288 C.ar      1 <0>        -0.1297
      4 C4          5.4361   -4.4451    1.3418 C.ar      1 <0>        -0.0906
      5 C5          6.6171   -5.1684    1.4594 C.ar      1 <0>        -0.0614
      6 C6          6.5894   -6.4567    1.9548 C.ar      1 <0>        -0.0670
      7 C7          5.3873   -7.0281    2.3342 C.ar      1 <0>        -0.0945
      8 Br1         5.3540   -8.7928    3.0128 Br        1 <0>        -0.0407
      9 C8          7.9264   -4.5471    1.0461 C.3       1 <0>        -0.1203
     10 S1          5.4672   -2.8006    0.7099 S.3       1 <0>         0.0038
     11 C9          3.7287   -2.2837    0.7459 C.3       1 <0>        -0.1597
     12 C10         3.6127   -0.8748    0.2237 C.2       1 <0>         0.5427
     13 O1          4.6050   -0.2782   -0.1372 O.2       1 <0>        -0.4917
     14 N1          2.4061   -0.2779    0.1577 N.am      1 <0>        -0.5474
     15 N2          2.2982    1.0319   -0.3277 N.pl3     1 <0>        -0.4597
     16 C11         1.0917    1.6289   -0.3937 C.2       1 <0>         0.5508
     17 S2          0.9598    3.2294   -0.9869 S.2       1 <0>        -0.5461
     18 N3         -0.0111    0.9658    0.0074 N.pl3     1 <0>        -0.6325
     19 C12        -1.2454    1.6099    0.0177 C.ar      1 <0>         0.1485
     20 C13        -2.0862    1.4813    1.1202 C.ar      1 <0>        -0.1320
     21 C14        -3.2955    2.1160    1.1371 C.ar      1 <0>        -0.0663
     22 C15        -3.6942    2.8882    0.0385 C.ar      1 <0>        -0.1636
     23 C16        -2.8476    3.0101   -1.0707 C.ar      1 <0>        -0.0514
     24 C17        -1.6377    2.3761   -1.0767 C.ar      1 <0>        -0.0824
     25 C18        -4.9954    3.5681    0.0499 C.2       1 <0>         0.3915
     26 O2         -5.3387    4.2367   -0.9022 O.2       1 <0>        -0.4513
     27 C19        -5.9045    3.4355    1.2445 C.3       1 <0>        -0.1927
     28 H1          2.7157   -6.7247    3.6846 H         1 <0>         0.0808
     29 H2          2.0950   -6.5237    2.0286 H         1 <0>         0.0718
     30 H3          2.9535   -8.0155    2.4823 H         1 <0>         0.0807
     31 H4          3.3129   -4.4583    1.6432 H         1 <0>         0.1287
     32 H5          7.5067   -7.0194    2.0461 H         1 <0>         0.1404
     33 H6          8.3701   -4.0335    1.8990 H         1 <0>         0.0814
     34 H7          8.6046   -5.3264    0.6983 H         1 <0>         0.0773
     35 H8          7.7516   -3.8322    0.2421 H         1 <0>         0.0754
     36 H9          3.3591   -2.3230    1.7705 H         1 <0>         0.1282
     37 H10         3.1377   -2.9528    0.1205 H         1 <0>         0.1281
     38 H11         1.6125   -0.7551    0.4464 H         1 <0>         0.4222
     39 H12         3.0918    1.5091   -0.6163 H         1 <0>         0.4634
     40 H13         0.0546    0.0387    0.2849 H         1 <0>         0.4022
     41 H14        -1.7798    0.8821    1.9649 H         1 <0>         0.1315
     42 H15        -3.9451    2.0193    1.9945 H         1 <0>         0.1392
     43 H16        -3.1508    3.6047   -1.9197 H         1 <0>         0.1412
     44 H17        -0.9843    2.4695   -1.9316 H         1 <0>         0.1541
     45 H18        -5.4406    3.7881    2.0572 H         1 <0>         0.0847
     46 H19        -6.8174    4.0053    1.0713 H         1 <0>         0.0863
     47 H20        -6.1548    2.3855    1.3958 H         1 <0>         0.0941
@<TRIPOS>BOND
     1    1    2 1
     2    1   28 1
     3    1   29 1
     4    1   30 1
     5    2    7 ar
     6    2    3 ar
     7    3    4 ar
     8    3   31 1
     9    4    5 ar
    10    4   10 1
    11    5    6 ar
    12    5    9 1
    13    6    7 ar
    14    6   32 1
    15    7    8 1
    16    9   33 1
    17    9   34 1
    18    9   35 1
    19   10   11 1
    20   11   12 1
    21   11   36 1
    22   11   37 1
    23   12   13 2
    24   12   14 am
    25   14   15 1
    26   14   38 1
    27   15   16 1
    28   15   39 1
    29   16   17 2
    30   16   18 1
    31   18   19 1
    32   18   40 1
    33   19   24 ar
    34   19   20 ar
    35   20   21 ar
    36   20   41 1
    37   21   22 ar
    38   21   42 1
    39   22   23 ar
    40   22   25 1
    41   23   24 ar
    42   23   43 1
    43   24   44 1
    44   25   26 2
    45   25   27 1
    46   27   45 1
    47   27   46 1
    48   27   47 1
@<TRIPOS>MOLECULE
ZINC02321769
   48    51     0     0     0
SMALL
USER_CHARGES
(1S)-2,2-bis(4-chlorophenyl)-N-[(2,4-dihydroxyphenyl)methyleneamino]cyclopropane-1-carboxamide
@<TRIPOS>ATOM
      1 C1          8.2532    5.8329    5.6647 C.ar      1 <0>        -0.0902
      2 C2          7.4989    5.3569    6.7206 C.ar      1 <0>        -0.1062
      3 C3          7.2386    4.0024    6.8292 C.ar      1 <0>        -0.0274
      4 C4          7.7289    3.1258    5.8776 C.ar      1 <0>        -0.1039
      5 C5          8.4784    3.6037    4.8192 C.ar      1 <0>        -0.0890
      6 C6          8.7381    4.9572    4.7112 C.ar      1 <0>        -0.0508
      7 C7          9.5553    5.4776    3.5569 C.3       1 <0>        -0.0268
      8 C8          8.9740    6.6375    2.7460 C.3       1 <0>        -0.1129
      9 C9          9.0204    5.2313    2.1448 C.3       1 <0>        -0.1745
     10 H1          9.7491    5.0446    1.3560 H         1 <0>         0.1389
     11 C10         7.7166    4.4868    2.0147 C.2       1 <0>         0.5650
     12 O1          6.6654    5.0902    2.0693 O.2       1 <0>        -0.4856
     13 N1          7.7182    3.1507    1.8377 N.am      1 <0>        -0.5837
     14 N2          6.5061    2.4586    1.7167 N.2       1 <0>        -0.1984
     15 C11         6.5077    1.1716    1.5462 C.2       1 <0>         0.1007
     16 C12         5.2333    0.4439    1.4190 C.ar      1 <0>        -0.0951
     17 C13         5.2318   -0.9414    1.2354 C.ar      1 <0>        -0.0578
     18 C14         4.0378   -1.6181    1.1165 C.ar      1 <0>        -0.1598
     19 C15         2.8330   -0.9275    1.1779 C.ar      1 <0>         0.1411
     20 C16         2.8240    0.4484    1.3543 C.ar      1 <0>        -0.1821
     21 C17         4.0168    1.1385    1.4812 C.ar      1 <0>         0.1663
     22 O2          4.0094    2.4847    1.6595 O.3       1 <0>        -0.4701
     23 O3          1.6599   -1.6020    1.0593 O.3       1 <0>        -0.4976
     24 C18        11.0494    5.4441    3.7507 C.ar      1 <0>        -0.0415
     25 C19        11.8732    5.0669    2.7066 C.ar      1 <0>        -0.1059
     26 C20        13.2440    5.0414    2.8820 C.ar      1 <0>        -0.1049
     27 C21        13.7909    5.3825    4.1062 C.ar      1 <0>        -0.0341
     28 C22        12.9656    5.7545    5.1524 C.ar      1 <0>        -0.1044
     29 C23        11.5953    5.7851    4.9741 C.ar      1 <0>        -0.0898
     30 Cl1        15.5121    5.3444    4.3292 Cl        1 <0>        -0.0660
     31 Cl2         6.2967    3.4030    8.1585 Cl        1 <0>        -0.0658
     32 H2          8.4601    6.8896    5.5822 H         1 <0>         0.1358
     33 H3          7.1164    6.0416    7.4630 H         1 <0>         0.1373
     34 H4          7.5264    2.0684    5.9621 H         1 <0>         0.1325
     35 H5          8.8609    2.9196    4.0762 H         1 <0>         0.1223
     36 H6          9.6722    7.3763    2.3526 H         1 <0>         0.1168
     37 H7          8.0004    7.0241    3.0473 H         1 <0>         0.1189
     38 H8          8.5586    2.6683    1.7941 H         1 <0>         0.3829
     39 H9          7.4434    0.6344    1.4976 H         1 <0>         0.1206
     40 H10         6.1660   -1.4811    1.1872 H         1 <0>         0.1378
     41 H11         4.0378   -2.6887    0.9746 H         1 <0>         0.1370
     42 H12         1.8853    0.9808    1.3969 H         1 <0>         0.1391
     43 H13         4.0287    2.9907    0.8356 H         1 <0>         0.3949
     44 H14         1.2984   -1.9133    1.9005 H         1 <0>         0.3970
     45 H15        11.4459    4.7963    1.7523 H         1 <0>         0.1329
     46 H16        13.8877    4.7509    2.0650 H         1 <0>         0.1364
     47 H17        13.3919    6.0206    6.1084 H         1 <0>         0.1365
     48 H18        10.9510    6.0758    5.7906 H         1 <0>         0.1335
@<TRIPOS>BOND
     1    1    6 ar
     2    1    2 ar
     3    1   32 1
     4    2    3 ar
     5    2   33 1
     6    3    4 ar
     7    3   31 1
     8    4    5 ar
     9    4   34 1
    10    5    6 ar
    11    5   35 1
    12    6    7 1
    13    7    9 1
    14    7    8 1
    15    7   24 1
    16    8    9 1
    17    8   36 1
    18    8   37 1
    19    9   10 1
    20    9   11 1
    21   11   12 2
    22   11   13 am
    23   13   14 1
    24   13   38 1
    25   14   15 2
    26   15   16 1
    27   15   39 1
    28   16   21 ar
    29   16   17 ar
    30   17   18 ar
    31   17   40 1
    32   18   19 ar
    33   18   41 1
    34   19   20 ar
    35   19   23 1
    36   20   21 ar
    37   20   42 1
    38   21   22 1
    39   22   43 1
    40   23   44 1
    41   24   29 ar
    42   24   25 ar
    43   25   26 ar
    44   25   45 1
    45   26   27 ar
    46   26   46 1
    47   27   28 ar
    48   27   30 1
    49   28   29 ar
    50   28   47 1
    51   29   48 1
@<TRIPOS>MOLECULE
ZINC16790903
   48    50     0     0     0
SMALL
USER_CHARGES
(Z)-3-phenyl-N-[(1R)-2,2,2-trichloro-1-(1-naphthylcarbamothioylamino)ethyl]prop-2-enamide
@<TRIPOS>ATOM
      1 C1         -1.3640    7.7369   -1.8336 C.ar      1 <0>        -0.1029
      2 C2         -1.4009    7.5652   -3.2064 C.ar      1 <0>        -0.1304
      3 C3         -2.1780    6.5695   -3.7597 C.ar      1 <0>        -0.0949
      4 C4         -2.9296    5.7318   -2.9298 C.ar      1 <0>        -0.0796
      5 C5         -2.8908    5.9147   -1.5440 C.ar      1 <0>        -0.0440
      6 C6         -2.1047    6.9115   -1.0056 C.ar      1 <0>        -0.1252
      7 C7         -3.7622    4.6667   -3.5124 C.2       1 <0>        -0.0020
      8 C8         -3.7959    3.4474   -2.9383 C.2       1 <0>        -0.2253
      9 C9         -2.7882    3.0793   -1.9418 C.2       1 <0>         0.5390
     10 O1         -1.8536    3.8256   -1.7171 O.2       1 <0>        -0.4624
     11 N1         -2.8958    1.9139   -1.2733 N.am      1 <0>        -0.7317
     12 C10        -1.8876    1.5456   -0.2763 C.3       1 <0>         0.3617
     13 H1         -1.2941    2.4228   -0.0185 H         1 <0>         0.1992
     14 C11        -2.5822    1.0130    0.9787 C.3       1 <0>         0.1107
     15 Cl1        -1.3414    0.5597    2.2058 Cl        1 <0>        -0.0575
     16 Cl2        -3.6598    2.2897    1.6568 Cl        1 <0>        -0.0505
     17 Cl3        -3.5639   -0.4379    0.5523 Cl        1 <0>        -0.0903
     18 N2         -1.0121    0.5083   -0.8273 N.pl3     1 <0>        -0.6951
     19 C12         0.2367    0.8221   -1.2255 C.2       1 <0>         0.5484
     20 S1          0.7997    2.4330   -1.0874 S.2       1 <0>        -0.5414
     21 N3          1.0422   -0.1322   -1.7324 N.pl3     1 <0>        -0.6217
     22 C13         2.3616    0.1745   -2.0683 C.ar      1 <0>         0.1109
     23 C14         2.6462    1.2983   -2.8140 C.ar      1 <0>        -0.0490
     24 C15         3.9583    1.6127   -3.1547 C.ar      1 <0>        -0.1086
     25 C16         4.9953    0.8224   -2.7619 C.ar      1 <0>        -0.0933
     26 C17         4.7481   -0.3322   -2.0002 C.ar      1 <0>        -0.0513
     27 C18         3.4169   -0.6601   -1.6428 C.ar      1 <0>        -0.0373
     28 C19         3.1711   -1.8167   -0.8864 C.ar      1 <0>        -0.1205
     29 C20         4.2133   -2.6021   -0.4979 C.ar      1 <0>        -0.1041
     30 C21         5.5234   -2.2780   -0.8447 C.ar      1 <0>        -0.1232
     31 C22         5.7987   -1.1670   -1.5812 C.ar      1 <0>        -0.0939
     32 H2         -0.7538    8.5188   -1.4062 H         1 <0>         0.1183
     33 H3         -0.8199    8.2130   -3.8460 H         1 <0>         0.1197
     34 H4         -2.2058    6.4368   -4.8312 H         1 <0>         0.1191
     35 H5         -3.4720    5.2745   -0.8969 H         1 <0>         0.1107
     36 H6         -2.0705    7.0514    0.0648 H         1 <0>         0.1186
     37 H7         -4.3459    4.8621   -4.3998 H         1 <0>         0.1382
     38 H8         -4.5662    2.7422   -3.2134 H         1 <0>         0.1333
     39 H9         -3.6408    1.3191   -1.4524 H         1 <0>         0.4018
     40 H10        -1.3311   -0.4044   -0.9055 H         1 <0>         0.3986
     41 H11         0.7037   -1.0311   -1.8675 H         1 <0>         0.4053
     42 H12         1.8417    1.9420   -3.1377 H         1 <0>         0.1458
     43 H13         4.1574    2.4983   -3.7399 H         1 <0>         0.1312
     44 H14         6.0071    1.0830   -3.0353 H         1 <0>         0.1310
     45 H15         2.1608   -2.0798   -0.6101 H         1 <0>         0.1162
     46 H16         4.0218   -3.4890    0.0879 H         1 <0>         0.1230
     47 H17         6.3324   -2.9176   -0.5241 H         1 <0>         0.1247
     48 H18         6.8190   -0.9278   -1.8420 H         1 <0>         0.1307
@<TRIPOS>BOND
     1    1    6 ar
     2    1    2 ar
     3    1   32 1
     4    2    3 ar
     5    2   33 1
     6    3    4 ar
     7    3   34 1
     8    4    5 ar
     9    4    7 1
    10    5    6 ar
    11    5   35 1
    12    6   36 1
    13    7    8 2
    14    7   37 1
    15    8    9 1
    16    8   38 1
    17    9   10 2
    18    9   11 am
    19   11   12 1
    20   11   39 1
    21   12   13 1
    22   12   14 1
    23   12   18 1
    24   14   15 1
    25   14   16 1
    26   14   17 1
    27   18   19 1
    28   18   40 1
    29   19   20 2
    30   19   21 1
    31   21   22 1
    32   21   41 1
    33   22   27 ar
    34   22   23 ar
    35   23   24 ar
    36   23   42 1
    37   24   25 ar
    38   24   43 1
    39   25   26 ar
    40   25   44 1
    41   26   31 ar
    42   26   27 ar
    43   27   28 ar
    44   28   29 ar
    45   28   45 1
    46   29   30 ar
    47   29   46 1
    48   30   31 ar
    49   30   47 1
    50   31   48 1
@<TRIPOS>MOLECULE
ZINC35400050
   56    59     0     0     0
SMALL
USER_CHARGES

@<TRIPOS>ATOM
      1 C1         -1.9911   -2.7886    1.1034 C.ar      1 <0>        -0.1110
      2 C2         -1.4109   -1.5494    0.9068 C.ar      1 <0>        -0.1194
      3 C3         -0.0461   -1.4482    0.7122 C.ar      1 <0>        -0.0995
      4 C4          0.7386   -2.5863    0.7147 C.ar      1 <0>        -0.0803
      5 C5          0.1586   -3.8254    0.9122 C.ar      1 <0>        -0.0993
      6 C6         -1.2065   -3.9267    1.1054 C.ar      1 <0>        -0.1195
      7 C7          2.2264   -2.4761    0.5015 C.3       1 <0>        -0.0603
      8 S1          3.0531   -2.2699    2.1030 S.3       1 <0>        -0.1142
      9 C8          4.7621   -2.1576    1.6892 C.ar      1 <0>        -0.1173
     10 C9          5.1632   -2.2290    0.3625 C.ar      1 <0>        -0.1158
     11 C10         6.5043   -2.1402    0.0406 C.ar      1 <0>        -0.1166
     12 C11         7.4498   -1.9806    1.0371 C.ar      1 <0>        -0.1027
     13 C12         7.0594   -1.9084    2.3614 C.ar      1 <0>        -0.1079
     14 C13         5.7158   -1.9908    2.6937 C.ar      1 <0>         0.1696
     15 N1          5.3175   -1.9125    4.0350 N.am      1 <0>        -0.6709
     16 C14         6.1277   -2.3768    5.0068 C.2       1 <0>         0.5225
     17 O1          7.2342   -2.7886    4.7286 O.2       1 <0>        -0.4932
     18 C15         5.6590   -2.3843    6.4390 C.3       1 <0>         0.0245
     19 N2          6.7168   -2.9337    7.2976 N.3       1 <0>        -0.4894
     20 C16         6.8260   -4.3866    7.1324 C.3       1 <0>         0.0931
     21 C17         7.8450   -4.9506    8.0875 C.ar      1 <0>        -0.0738
     22 C18         8.3549   -6.2164    7.8375 C.ar      1 <0>        -0.1118
     23 C19         9.2876   -6.7737    8.6885 C.ar      1 <0>        -0.1186
     24 C20         9.7167   -6.0678    9.7972 C.ar      1 <0>        -0.1180
     25 C21         9.2116   -4.8076   10.0466 C.ar      1 <0>        -0.1173
     26 C22         8.2761   -4.2457    9.1908 C.ar      1 <0>        -0.0697
     27 C23         7.7609   -2.8629    9.4970 C.3       1 <0>        -0.0624
     28 C24         6.4769   -2.5982    8.7102 C.3       1 <0>         0.0669
     29 H1          5.6722   -3.2200    9.1027 H         1 <0>         0.0697
     30 C25         6.1015   -1.1435    8.8284 C.2       1 <0>         0.5174
     31 O2          6.6103   -0.3243    8.0929 O.2       1 <0>        -0.5162
     32 N3          5.2005   -0.7529    9.7514 N.am      1 <0>        -0.8527
     33 H2         -3.0568   -2.8672    1.2600 H         1 <0>         0.1247
     34 H3         -2.0240   -0.6603    0.9049 H         1 <0>         0.1259
     35 H4          0.4071   -0.4801    0.5579 H         1 <0>         0.1251
     36 H5          0.7716   -4.7145    0.9137 H         1 <0>         0.1248
     37 H6         -1.6597   -4.8948    1.2593 H         1 <0>         0.1257
     38 H7          2.5922   -3.3818    0.0178 H         1 <0>         0.0980
     39 H8          2.4400   -1.6146   -0.1312 H         1 <0>         0.0980
     40 H9          4.4276   -2.3544   -0.4182 H         1 <0>         0.1251
     41 H10         6.8148   -2.1960   -0.9923 H         1 <0>         0.1269
     42 H11         8.4966   -1.9124    0.7801 H         1 <0>         0.1295
     43 H12         7.8007   -1.7841    3.1369 H         1 <0>         0.1515
     44 H13         4.4586   -1.5241    4.2640 H         1 <0>         0.4105
     45 H14         5.4298   -1.3655    6.7517 H         1 <0>         0.1197
     46 H15         4.7642   -3.0008    6.5253 H         1 <0>         0.0710
     47 H16         5.8567   -4.8452    7.3276 H         1 <0>         0.0494
     48 H17         7.1280   -4.6112    6.1094 H         1 <0>         0.1063
     49 H18         8.0197   -6.7689    6.9722 H         1 <0>         0.1225
     50 H19         9.6812   -7.7594    8.4890 H         1 <0>         0.1235
     51 H20        10.4449   -6.5014   10.4665 H         1 <0>         0.1233
     52 H21         9.5463   -4.2565   10.9130 H         1 <0>         0.1227
     53 H22         7.5546   -2.7817   10.5642 H         1 <0>         0.0858
     54 H23         8.5143   -2.1261    9.2185 H         1 <0>         0.0950
     55 H24         4.7936   -1.4081   10.3397 H         1 <0>         0.4031
     56 H25         4.9589    0.1835    9.8275 H         1 <0>         0.4059
@<TRIPOS>BOND
     1    1    6 ar
     2    1    2 ar
     3    1   33 1
     4    2    3 ar
     5    2   34 1
     6    3    4 ar
     7    3   35 1
     8    4    5 ar
     9    4    7 1
    10    5    6 ar
    11    5   36 1
    12    6   37 1
    13    7    8 1
    14    7   38 1
    15    7   39 1
    16    8    9 1
    17    9   14 ar
    18    9   10 ar
    19   10   11 ar
    20   10   40 1
    21   11   12 ar
    22   11   41 1
    23   12   13 ar
    24   12   42 1
    25   13   14 ar
    26   13   43 1
    27   14   15 1
    28   15   16 am
    29   15   44 1
    30   16   17 2
    31   16   18 1
    32   18   19 1
    33   18   45 1
    34   18   46 1
    35   19   28 1
    36   19   20 1
    37   20   21 1
    38   20   47 1
    39   20   48 1
    40   21   26 ar
    41   21   22 ar
    42   22   23 ar
    43   22   49 1
    44   23   24 ar
    45   23   50 1
    46   24   25 ar
    47   24   51 1
    48   25   26 ar
    49   25   52 1
    50   26   27 1
    51   27   28 1
    52   27   53 1
    53   27   54 1
    54   28   29 1
    55   28   30 1
    56   30   31 2
    57   30   32 am
    58   32   55 1
    59   32   56 1
@<TRIPOS>MOLECULE
ZINC49127069
   32    33     0     0     0
SMALL
USER_CHARGES

@<TRIPOS>ATOM
      1 C1          0.6149    0.4543   -0.5975 C.3       1 <0>        -0.1758
      2 C2          0.2483   -1.0094   -0.8506 C.3       1 <0>         0.2372
      3 H1         -0.8094   -1.1615   -0.6356 H         1 <0>         0.1066
      4 C3          1.0753   -1.8963    0.0442 C.2       1 <0>        -0.1514
      5 C4          0.7282   -2.4936    1.2099 C.2       1 <0>        -0.1344
      6 C5          1.6614   -3.2733    1.8681 C.2       1 <0>        -0.1369
      7 C6          2.8969   -3.4166    1.3267 C.2       1 <0>        -0.1173
      8 S1          2.7638   -2.4385   -0.1609 S.3       1 <0>         0.1075
      9 Cl1         4.2532   -4.3219    1.9222 Cl        1 <0>         0.0220
     10 N1          0.5150   -1.3444   -2.2516 N.pl3     1 <0>        -1.1110
     11 S2         -0.7032   -1.2577   -3.3700 S.o2      1 <0>         2.6871
     12 O1         -0.1312   -1.6113   -4.6218 O.2       1 <0>        -0.9235
     13 O2         -1.8129   -1.9515   -2.8164 O.2       1 <0>        -0.9499
     14 C7         -1.1778    0.4347   -3.4932 C.ar      1 <0>        -0.7242
     15 C8         -2.2495    0.9122   -2.7494 C.ar      1 <0>         0.3216
     16 C9         -2.6204    2.2468   -2.8487 C.ar      1 <0>        -0.1644
     17 C10        -1.9227    3.0961   -3.6869 C.ar      1 <0>         0.0069
     18 C11        -0.8562    2.6176   -4.4267 C.ar      1 <0>        -0.1351
     19 C12        -0.4807    1.2896   -4.3255 C.ar      1 <0>         0.0427
     20 Br1         0.9831    0.6424   -5.3325 Br        1 <0>         0.0081
     21 Br2        -2.4269    4.9135   -3.8229 Br        1 <0>        -0.0187
     22 N2         -2.9530    0.0515   -1.9037 N.pl3     1 <0>        -0.8602
     23 H2          1.6726    0.6064   -0.8125 H         1 <0>         0.0750
     24 H3          0.0167    1.0958   -1.2447 H         1 <0>         0.0698
     25 H4          0.4165    0.7036    0.4449 H         1 <0>         0.0804
     26 H5         -0.2627   -2.3624    1.6190 H         1 <0>         0.1459
     27 H6          1.4106   -3.7602    2.7989 H         1 <0>         0.1462
     28 H7          1.4051   -1.6171   -2.5241 H         1 <0>         0.4232
     29 H8         -3.4534    2.6207   -2.2719 H         1 <0>         0.1495
     30 H9         -0.3129    3.2829   -5.0815 H         1 <0>         0.1506
     31 H10        -2.5112   -0.7247   -1.5252 H         1 <0>         0.4110
     32 H11        -3.8832    0.2301   -1.6947 H         1 <0>         0.4115
@<TRIPOS>BOND
     1    1    2 1
     2    1   23 1
     3    1   24 1
     4    1   25 1
     5    2    3 1
     6    2    4 1
     7    2   10 1
     8    4    8 1
     9    4    5 2
    10    5    6 1
    11    5   26 1
    12    6    7 2
    13    6   27 1
    14    7    8 1
    15    7    9 1
    16   10   11 1
    17   10   28 1
    18   11   12 2
    19   11   13 2
    20   11   14 1
    21   14   19 ar
    22   14   15 ar
    23   15   16 ar
    24   15   22 1
    25   16   17 ar
    26   16   29 1
    27   17   18 ar
    28   17   21 1
    29   18   19 ar
    30   18   30 1
    31   19   20 1
    32   22   31 1
    33   22   32 1
@<TRIPOS>MOLECULE
ZINC02576498
   40    42     0     0     0
SMALL
USER_CHARGES
4-[[4-[(2-amino-6-chloro-pyrimidin-4-yl)sulfanylmethyl]phenyl]methylsulfanyl]-6-chloro-pyrimidin-2-amine
@<TRIPOS>ATOM
      1 C1          4.7166    5.5198    1.1827 C.ar      1 <0>        -0.0978
      2 C2          5.7455    6.4431    1.1774 C.ar      1 <0>        -0.0978
      3 C3          6.2475    6.9116   -0.0223 C.ar      1 <0>        -0.0763
      4 C4          5.7228    6.4546   -1.2168 C.ar      1 <0>        -0.0978
      5 C5          4.6966    5.5284   -1.2115 C.ar      1 <0>        -0.0979
      6 C6          4.1955    5.0589   -0.0118 C.ar      1 <0>        -0.0763
      7 C7          3.0768    4.0492   -0.0060 C.3       1 <0>        -0.0649
      8 S1          3.7722    2.3782   -0.0219 S.3       1 <0>        -0.0079
      9 C8          2.2878    1.4289   -0.0122 C.ar      1 <0>         0.2117
     10 C9          2.3392    0.0333   -0.0202 C.ar      1 <0>        -0.2539
     11 C10         1.1491   -0.6702   -0.0126 C.ar      1 <0>         0.2811
     12 N1          0.0021   -0.0041    0.0020 N.ar      1 <0>        -0.5747
     13 C11        -0.0159    1.3205    0.0093 C.ar      1 <0>         0.6023
     14 N2          1.1018    2.0311    0.0024 N.ar      1 <0>        -0.5743
     15 N3         -1.2334    1.9785    0.0186 N.pl3     1 <0>        -0.8130
     16 Cl1         1.1558   -2.4061   -0.0225 Cl        1 <0>        -0.0044
     17 C12         7.3666    7.9209   -0.0281 C.3       1 <0>        -0.0649
     18 S2          6.6718    9.5922   -0.0131 S.3       1 <0>        -0.0080
     19 C13         8.1565   10.5409   -0.0227 C.ar      1 <0>         0.2117
     20 C14         8.1055   11.9365   -0.0211 C.ar      1 <0>        -0.2539
     21 C15         9.2959   12.6396   -0.0232 C.ar      1 <0>         0.2811
     22 N4         10.4428   11.9731   -0.0375 N.ar      1 <0>        -0.5746
     23 C16        10.4602   10.6484   -0.0442 C.ar      1 <0>         0.6023
     24 N5          9.3423    9.9383   -0.0370 N.ar      1 <0>        -0.5743
     25 N6         11.6774    9.9900   -0.0587 N.pl3     1 <0>        -0.8130
     26 Cl2         9.2899   14.3756   -0.0144 Cl        1 <0>        -0.0044
     27 H1          4.3221    5.1563    2.1201 H         1 <0>         0.1298
     28 H2          6.1552    6.8004    2.1106 H         1 <0>         0.1298
     29 H3          6.1148    6.8209   -2.1541 H         1 <0>         0.1298
     30 H4          4.2866    5.1714   -2.1447 H         1 <0>         0.1298
     31 H5          2.4539    4.1919   -0.8891 H         1 <0>         0.1070
     32 H6          2.4717    4.1824    0.8908 H         1 <0>         0.1070
     33 H7          3.2870   -0.4844   -0.0317 H         1 <0>         0.1592
     34 H8         -2.0595    1.4701    0.0197 H         1 <0>         0.4190
     35 H9         -1.2606    2.9481    0.0240 H         1 <0>         0.4183
     36 H10         7.9890    7.7783    0.8553 H         1 <0>         0.1070
     37 H11         7.9720    7.7871   -0.9246 H         1 <0>         0.1070
     38 H12         7.1579   12.4546   -0.0140 H         1 <0>         0.1592
     39 H13        11.7043    9.0204   -0.0635 H         1 <0>         0.4183
     40 H14        12.5037   10.4982   -0.0641 H         1 <0>         0.4190
@<TRIPOS>BOND
     1    1    6 ar
     2    1    2 ar
     3    1   27 1
     4    2    3 ar
     5    2   28 1
     6    3    4 ar
     7    3   17 1
     8    4    5 ar
     9    4   29 1
    10    5    6 ar
    11    5   30 1
    12    6    7 1
    13    7    8 1
    14    7   31 1
    15    7   32 1
    16    8    9 1
    17    9   14 ar
    18    9   10 ar
    19   10   11 ar
    20   10   33 1
    21   11   12 ar
    22   11   16 1
    23   12   13 ar
    24   13   14 ar
    25   13   15 1
    26   15   34 1
    27   15   35 1
    28   17   18 1
    29   17   36 1
    30   17   37 1
    31   18   19 1
    32   19   24 ar
    33   19   20 ar
    34   20   21 ar
    35   20   38 1
    36   21   22 ar
    37   21   26 1
    38   22   23 ar
    39   23   24 ar
    40   23   25 1
    41   25   39 1
    42   25   40 1
@<TRIPOS>MOLECULE
ZINC13979019
   50    51     0     0     0
SMALL
USER_CHARGES
4-chloro-N-[[[4-(3-methylbutanoylamino)benzoyl]amino]carbamothioyl]benzamide
@<TRIPOS>ATOM
      1 C1          6.5908   13.9005    1.5782 C.3       1 <0>        -0.1498
      2 C2          6.6067   12.3706    1.5783 C.3       1 <0>        -0.0820
      3 C3          6.5211   11.8598    3.0180 C.3       1 <0>        -0.1562
      4 C4          5.4107   11.8481    0.7798 C.3       1 <0>        -0.1365
      5 C5          5.4934   10.3470    0.6758 C.2       1 <0>         0.5138
      6 O1          6.4178    9.7535    1.1897 O.2       1 <0>        -0.5059
      7 N1          4.5400    9.6640    0.0117 N.am      1 <0>        -0.6781
      8 C6          4.5638    8.2699   -0.0037 C.ar      1 <0>         0.1843
      9 C7          5.7812    7.5967   -0.0305 C.ar      1 <0>        -0.1277
     10 C8          5.8082    6.2204   -0.0453 C.ar      1 <0>        -0.0267
     11 C9          4.6112    5.4994   -0.0339 C.ar      1 <0>        -0.1535
     12 C10         3.3901    6.1787   -0.0133 C.ar      1 <0>        -0.0652
     13 C11         3.3702    7.5551    0.0082 C.ar      1 <0>        -0.1515
     14 C12         4.6364    4.0237   -0.0496 C.2       1 <0>         0.5723
     15 O2          5.6995    3.4341   -0.0725 O.2       1 <0>        -0.5110
     16 N2          3.4811    3.3298   -0.0386 N.am      1 <0>        -0.5520
     17 N3          3.5050    1.9291   -0.0535 N.pl3     1 <0>        -0.4537
     18 C13         2.3497    1.2352   -0.0425 C.2       1 <0>         0.5154
     19 S1          2.3789   -0.4765   -0.0608 S.2       1 <0>        -0.4522
     20 N4          1.1713    1.8888   -0.0171 N.am      1 <0>        -0.6446
     21 C14         0.0159    1.1949   -0.0061 C.2       1 <0>         0.5381
     22 O3          0.0367   -0.0202   -0.0190 O.2       1 <0>        -0.3943
     23 C15        -1.2757    1.9112    0.0157 C.ar      1 <0>        -0.1335
     24 C16        -1.3028    3.3074    0.0364 C.ar      1 <0>        -0.0791
     25 C17        -2.5116    3.9704    0.0518 C.ar      1 <0>        -0.1139
     26 C18        -3.6974    3.2545    0.0573 C.ar      1 <0>        -0.0070
     27 C19        -3.6770    1.8695    0.0421 C.ar      1 <0>        -0.1118
     28 C20        -2.4746    1.1951    0.0213 C.ar      1 <0>        -0.0374
     29 Cl1        -5.2154    4.0964    0.0829 Cl        1 <0>        -0.0525
     30 H1          5.6665   14.2543    2.0349 H         1 <0>         0.0562
     31 H2          7.4428   14.2728    2.1471 H         1 <0>         0.0609
     32 H3          6.6517   14.2644    0.5526 H         1 <0>         0.0559
     33 H4          7.5310   12.0168    1.1216 H         1 <0>         0.0797
     34 H5          6.5324   10.7699    3.0181 H         1 <0>         0.0717
     35 H6          7.3731   12.2320    3.5868 H         1 <0>         0.0559
     36 H7          5.5968   12.2136    3.4747 H         1 <0>         0.0490
     37 H8          5.4233   12.2828   -0.2197 H         1 <0>         0.0997
     38 H9          4.4863   12.1269    1.2857 H         1 <0>         0.0997
     39 H10         3.8372   10.1422   -0.4556 H         1 <0>         0.4157
     40 H11         6.7059    8.1545   -0.0393 H         1 <0>         0.1516
     41 H12         6.7535    5.6985   -0.0653 H         1 <0>         0.1451
     42 H13         2.4631    5.6245   -0.0093 H         1 <0>         0.1243
     43 H14         2.4269    8.0806    0.0293 H         1 <0>         0.1377
     44 H15         2.6330    3.8002   -0.0203 H         1 <0>         0.4162
     45 H16         4.3531    1.4587   -0.0718 H         1 <0>         0.4599
     46 H17         1.1547    2.8586   -0.0067 H         1 <0>         0.3999
     47 H18        -0.3788    3.8666    0.0363 H         1 <0>         0.1282
     48 H19        -2.5339    5.0501    0.0638 H         1 <0>         0.1442
     49 H20        -4.6049    1.3168    0.0461 H         1 <0>         0.1474
     50 H21        -2.4599    0.1153    0.0091 H         1 <0>         0.1532
@<TRIPOS>BOND
     1    1    2 1
     2    1   30 1
     3    1   31 1
     4    1   32 1
     5    2    3 1
     6    2    4 1
     7    2   33 1
     8    3   34 1
     9    3   35 1
    10    3   36 1
    11    4    5 1
    12    4   37 1
    13    4   38 1
    14    5    6 2
    15    5    7 am
    16    7    8 1
    17    7   39 1
    18    8   13 ar
    19    8    9 ar
    20    9   10 ar
    21    9   40 1
    22   10   11 ar
    23   10   41 1
    24   11   12 ar
    25   11   14 1
    26   12   13 ar
    27   12   42 1
    28   13   43 1
    29   14   15 2
    30   14   16 am
    31   16   17 1
    32   16   44 1
    33   17   18 1
    34   17   45 1
    35   18   19 2
    36   18   20 1
    37   20   21 am
    38   20   46 1
    39   21   22 2
    40   21   23 1
    41   23   28 ar
    42   23   24 ar
    43   24   25 ar
    44   24   47 1
    45   25   26 ar
    46   25   48 1
    47   26   27 ar
    48   26   29 1
    49   27   28 ar
    50   27   49 1
    51   28   50 1
@<TRIPOS>MOLECULE
ZINC20682550
   58    62     0     0     0
SMALL
USER_CHARGES
N-[(3aR,4S,9bR)-4-(2,4-dihydroxyphenyl)-3a,4,5,9b-tetrahydro-3H-cyclopenta[c]quinolin-8-yl]-3-phenyl-propanamide
@<TRIPOS>ATOM
      1 C1          9.9791    4.1095    0.4653 C.ar      1 <0>        -0.1240
      2 C2          9.3237    4.8987   -0.4612 C.ar      1 <0>        -0.1181
      3 C3          7.9758    5.1661   -0.3111 C.ar      1 <0>        -0.1168
      4 C4          7.2832    4.6437    0.7651 C.ar      1 <0>        -0.0837
      5 C5          7.9397    3.8584    1.6943 C.ar      1 <0>        -0.1168
      6 C6          9.2866    3.5874    1.5417 C.ar      1 <0>        -0.1181
      7 C7          5.8137    4.9352    0.9288 C.3       1 <0>        -0.0668
      8 C8          4.9972    3.8601    0.2089 C.3       1 <0>        -0.1337
      9 C9          3.5277    4.1516    0.3726 C.2       1 <0>         0.5119
     10 O1          3.1689    5.1237    1.0031 O.2       1 <0>        -0.5269
     11 N1          2.6123    3.3322   -0.1815 N.am      1 <0>        -0.6831
     12 C10         1.2513    3.6617   -0.1248 C.ar      1 <0>         0.0940
     13 C11         0.8549    4.9921   -0.1635 C.ar      1 <0>        -0.0780
     14 C12        -0.4846    5.3164   -0.1153 C.ar      1 <0>        -0.1763
     15 C13        -1.4471    4.3182   -0.0235 C.ar      1 <0>         0.2066
     16 C14        -1.0432    2.9792    0.0218 C.ar      1 <0>        -0.1285
     17 C15         0.2958    2.6590   -0.0303 C.ar      1 <0>        -0.0975
     18 C16        -2.0984    1.9525    0.1668 C.3       1 <0>        -0.0153
     19 H1         -2.0778    1.8727    1.2637 H         1 <0>         0.0989
     20 C17        -1.9320    0.5437   -0.3045 C.2       1 <0>        -0.1658
     21 C18        -3.1077    0.0759   -0.7064 C.2       1 <0>        -0.1815
     22 C19        -4.1820    1.1530   -0.5450 C.3       1 <0>        -0.0784
     23 C20        -3.3465    2.4374   -0.6297 C.3       1 <0>        -0.0728
     24 H2         -3.2807    2.7914   -1.6691 H         1 <0>         0.0994
     25 C21        -3.8627    3.6496    0.1247 C.3       1 <0>         0.2167
     26 H3         -4.8141    4.0245   -0.2807 H         1 <0>         0.0979
     27 N2         -2.8033    4.6748    0.0037 N.pl3     1 <0>        -0.7554
     28 C22        -4.0914    3.3058    1.5740 C.ar      1 <0>        -0.1843
     29 C23        -3.0822    3.5015    2.4976 C.ar      1 <0>        -0.0217
     30 C24        -3.2890    3.1877    3.8270 C.ar      1 <0>        -0.2066
     31 C25        -4.5114    2.6750    4.2382 C.ar      1 <0>         0.1963
     32 C26        -5.5253    2.4779    3.3138 C.ar      1 <0>        -0.3142
     33 C27        -5.3171    2.7985    1.9810 C.ar      1 <0>         0.2046
     34 O2         -6.3110    2.6116    1.0732 O.3       1 <0>        -0.5032
     35 O3         -4.7141    2.3662    5.5460 O.3       1 <0>        -0.5077
     36 H4         11.0322    3.9005    0.3480 H         1 <0>         0.1211
     37 H5          9.8647    5.3066   -1.3022 H         1 <0>         0.1218
     38 H6          7.4638    5.7830   -1.0347 H         1 <0>         0.1216
     39 H7          7.3995    3.4539    2.5374 H         1 <0>         0.1215
     40 H8          9.7986    2.9705    2.2654 H         1 <0>         0.1218
     41 H9          5.5570    4.9358    1.9984 H         1 <0>         0.0813
     42 H10         5.5849    5.9204    0.4963 H         1 <0>         0.0813
     43 H11         5.2540    3.8595   -0.8607 H         1 <0>         0.0977
     44 H12         5.2260    2.8749    0.6414 H         1 <0>         0.0965
     45 H13         2.9334    2.4048   -0.6783 H         1 <0>         0.4298
     46 H14         1.5968    5.7740   -0.2317 H         1 <0>         0.1302
     47 H15        -0.7875    6.3525   -0.1489 H         1 <0>         0.1216
     48 H16         0.6031    1.6241   -0.0020 H         1 <0>         0.1207
     49 H17        -1.0388   -0.0963   -0.3556 H         1 <0>         0.1264
     50 H18        -3.1898   -0.9537   -1.0847 H         1 <0>         0.1274
     51 H19        -4.9191    1.0602   -1.3563 H         1 <0>         0.0696
     52 H20        -4.6859    1.0259    0.4245 H         1 <0>         0.0832
     53 H21        -3.0731    5.7389   -0.0669 H         1 <0>         0.4194
     54 H22        -2.1304    3.9006    2.1796 H         1 <0>         0.1353
     55 H23        -2.4988    3.3418    4.5470 H         1 <0>         0.1263
     56 H24        -6.4771    2.0787    3.6318 H         1 <0>         0.1291
     57 H25        -7.2825    2.2094    1.3963 H         1 <0>         0.4327
     58 H26        -5.6831    1.9599    5.8714 H         1 <0>         0.4327
@<TRIPOS>BOND
     1    1    6 ar
     2    1    2 ar
     3    1   36 1
     4    2    3 ar
     5    2   37 1
     6    3    4 ar
     7    3   38 1
     8    4    5 ar
     9    4    7 1
    10    5    6 ar
    11    5   39 1
    12    6   40 1
    13    7    8 1
    14    7   41 1
    15    7   42 1
    16    8    9 1
    17    8   43 1
    18    8   44 1
    19    9   10 2
    20    9   11 am
    21   11   12 1
    22   11   45 1
    23   12   17 ar
    24   12   13 ar
    25   13   14 ar
    26   13   46 1
    27   14   15 ar
    28   14   47 1
    29   15   27 1
    30   15   16 ar
    31   16   17 ar
    32   16   18 1
    33   17   48 1
    34   18   19 1
    35   18   23 1
    36   18   20 1
    37   20   21 2
    38   20   49 1
    39   21   22 1
    40   21   50 1
    41   22   23 1
    42   22   51 1
    43   22   52 1
    44   23   24 1
    45   23   25 1
    46   25   26 1
    47   25   27 1
    48   25   28 1
    49   27   53 1
    50   28   33 ar
    51   28   29 ar
    52   29   30 ar
    53   29   54 1
    54   30   31 ar
    55   30   55 1
    56   31   32 ar
    57   31   35 1
    58   32   33 ar
    59   32   56 1
    60   33   34 1
    61   34   57 1
    62   35   58 1
@<TRIPOS>MOLECULE
ZINC39007553
   49    52     0     0     0
SMALL
USER_CHARGES

@<TRIPOS>ATOM
      1 C1         -0.0173    1.4248    0.0099 C.3       1 <0>         0.0245
      2 O1          0.0021   -0.0041    0.0020 O.3       1 <0>        -0.3152
      3 C2         -1.2000   -0.6373    0.0101 C.ar      1 <0>         0.1419
      4 C3         -2.3737    0.1043    0.0195 C.ar      1 <0>        -0.2101
      5 C4         -3.5953   -0.5356    0.0272 C.ar      1 <0>        -0.0405
      6 C5         -3.6509   -1.9284    0.0256 C.ar      1 <0>        -0.0759
      7 C6         -2.4708   -2.6703    0.0162 C.ar      1 <0>        -0.0594
      8 C7         -1.2523   -2.0247    0.0031 C.ar      1 <0>        -0.1538
      9 C8         -4.9634   -2.6198    0.0345 C.2       1 <0>         0.0382
     10 C9         -5.1277   -3.9569    0.0391 C.2       1 <0>        -0.1840
     11 C10        -6.6352   -4.1379    0.0481 C.3       1 <0>        -0.0066
     12 H1         -6.9644   -4.6683   -0.8455 H         1 <0>         0.1499
     13 N1         -7.1394   -2.7547    0.0470 N.2       1 <0>        -0.0990
     14 N2         -6.1695   -1.9937    0.0449 N.2       1 <0>        -0.1603
     15 C11        -7.0828   -4.8790    1.3096 C.3       1 <0>         0.2193
     16 H2         -6.5428   -5.8205    1.4096 H         1 <0>         0.0650
     17 N3         -6.8760   -4.0304    2.5123 N.3       1 <0>        -0.4660
     18 N4         -7.8373   -4.5840    3.4788 N.3       1 <0>        -0.4819
     19 C12        -9.0250   -4.9276    2.6640 C.3       1 <0>         0.2561
     20 H3         -9.7503   -4.1148    2.6997 H         1 <0>         0.1602
     21 N5         -8.5440   -5.1204    1.2780 N.3       1 <0>        -0.3523
     22 N6         -8.8403   -6.4620    0.8022 N.3       1 <0>        -0.6954
     23 S1         -9.7779   -6.4596    3.2777 S.3       1 <0>        -0.2077
     24 C13        -8.4467   -7.6852    3.1487 C.3       1 <0>        -0.0639
     25 C14        -8.9459   -9.0219    3.6336 C.ar      1 <0>        -0.0588
     26 C15        -8.8239   -9.3626    4.9678 C.ar      1 <0>        -0.0973
     27 C16        -9.2819  -10.5883    5.4130 C.ar      1 <0>        -0.0896
     28 C17        -9.8625  -11.4741    4.5233 C.ar      1 <0>        -0.0848
     29 C18        -9.9845  -11.1328    3.1883 C.ar      1 <0>        -0.0908
     30 C19        -9.5309   -9.9047    2.7450 C.ar      1 <0>        -0.0913
     31 Br1       -10.4889  -13.1514    5.1316 Br        1 <0>        -0.0462
     32 H4          1.0053    1.8021    0.0021 H         1 <0>         0.1030
     33 H5         -0.5445    1.7859   -0.8732 H         1 <0>         0.0584
     34 H6         -0.5275    1.7763    0.9067 H         1 <0>         0.0586
     35 H7         -2.3299    1.1834    0.0211 H         1 <0>         0.1345
     36 H8         -4.5079    0.0418    0.0349 H         1 <0>         0.1389
     37 H9         -2.5108   -3.7495    0.0149 H         1 <0>         0.1298
     38 H10        -0.3376   -2.5989   -0.0083 H         1 <0>         0.1361
     39 H11        -4.3651   -4.7216    0.0367 H         1 <0>         0.1699
     40 H12        -5.9306   -4.1130    2.8549 H         1 <0>         0.3532
     41 H13        -7.4619   -5.4026    3.9338 H         1 <0>         0.3190
     42 H14        -9.8356   -6.6264    0.7807 H         1 <0>         0.3787
     43 H15        -8.4274   -6.6236   -0.1041 H         1 <0>         0.3520
     44 H16        -8.1310   -7.7706    2.1090 H         1 <0>         0.1311
     45 H17        -7.6016   -7.3693    3.7604 H         1 <0>         0.0743
     46 H18        -8.3702   -8.6710    5.6623 H         1 <0>         0.1323
     47 H19        -9.1862  -10.8545    6.4553 H         1 <0>         0.1356
     48 H20       -10.4378  -11.8241    2.4934 H         1 <0>         0.1356
     49 H21        -9.6297   -9.6365    1.7036 H         1 <0>         0.1349
@<TRIPOS>BOND
     1    1    2 1
     2    1   32 1
     3    1   33 1
     4    1   34 1
     5    2    3 1
     6    3    8 ar
     7    3    4 ar
     8    4    5 ar
     9    4   35 1
    10    5    6 ar
    11    5   36 1
    12    6    7 ar
    13    6    9 1
    14    7    8 ar
    15    7   37 1
    16    8   38 1
    17    9   14 1
    18    9   10 2
    19   10   11 1
    20   10   39 1
    21   11   12 1
    22   11   13 1
    23   11   15 1
    24   13   14 2
    25   15   16 1
    26   15   21 1
    27   15   17 1
    28   17   18 1
    29   17   40 1
    30   18   19 1
    31   18   41 1
    32   19   20 1
    33   19   21 1
    34   19   23 1
    35   21   22 1
    36   22   42 1
    37   22   43 1
    38   23   24 1
    39   24   25 1
    40   24   44 1
    41   24   45 1
    42   25   30 ar
    43   25   26 ar
    44   26   27 ar
    45   26   46 1
    46   27   28 ar
    47   27   47 1
    48   28   29 ar
    49   28   31 1
    50   29   30 ar
    51   29   48 1
    52   30   49 1
@<TRIPOS>MOLECULE
ZINC58504373
   58    59     0     0     0
SMALL
USER_CHARGES

@<TRIPOS>ATOM
      1 C1         -3.2917    0.6670    6.5566 C.3       1 <0>        -0.1537
      2 C2         -2.5597   -0.4673    5.8364 C.3       1 <0>        -0.1192
      3 C3         -3.3358   -0.8561    4.5765 C.3       1 <0>        -0.1390
      4 C4         -2.6039   -1.9904    3.8563 C.3       1 <0>         0.1156
      5 N1         -3.3470   -2.3627    2.6500 N.pl3     1 <0>        -0.7269
      6 C5         -2.8693   -3.3852    1.8211 C.ar      1 <0>         0.2818
      7 C6         -1.6962   -4.0505    2.1433 C.ar      1 <0>        -0.2118
      8 C7         -1.2266   -5.0601    1.3236 C.ar      1 <0>         0.0387
      9 C8         -1.9235   -5.4096    0.1819 C.ar      1 <0>        -0.7307
     10 C9         -3.0942   -4.7514   -0.1470 C.ar      1 <0>         0.0506
     11 C10        -3.5752   -3.7413    0.6721 C.ar      1 <0>         0.0224
     12 N2         -4.7634   -3.0771    0.3439 N.pl3     1 <0>        -1.0585
     13 S1         -6.2243   -3.7530    0.7326 S.o2      1 <0>         2.6785
     14 O1         -7.2181   -2.7962    0.3913 O.2       1 <0>        -0.9511
     15 O2         -6.2183   -5.0691    0.1970 O.2       1 <0>        -0.9404
     16 C11        -6.2699   -3.9229    2.4858 C.ar      1 <0>        -0.6725
     17 C12        -6.5166   -2.8194    3.2809 C.ar      1 <0>         0.0138
     18 C13        -6.5523   -2.9527    4.6564 C.ar      1 <0>        -0.1083
     19 C14        -6.3417   -4.1896    5.2366 C.ar      1 <0>        -0.0529
     20 C15        -6.0959   -5.2932    4.4414 C.ar      1 <0>        -0.1087
     21 C16        -6.0644   -5.1607    3.0658 C.ar      1 <0>         0.0304
     22 C17        -5.8015   -6.3649    2.1986 C.3       1 <0>        -0.1750
     23 C18        -5.8658   -6.6416    5.0740 C.3       1 <0>        -0.1178
     24 C19        -6.8204   -1.7495    5.5233 C.3       1 <0>        -0.1202
     25 C20        -6.7462   -1.4710    2.6484 C.3       1 <0>        -0.1471
     26 S2         -1.3178   -6.6970   -0.8575 S.o2      1 <0>         2.7039
     27 O3         -1.8599   -6.4642   -2.1502 O.2       1 <0>        -0.9638
     28 O4          0.0809   -6.7846   -0.6224 O.2       1 <0>        -0.9640
     29 N3         -1.9786   -8.1155   -0.3156 N.pl3     1 <0>        -1.2485
     30 H1         -2.7388    0.9440    7.4541 H         1 <0>         0.0578
     31 H2         -3.3656    1.5297    5.8945 H         1 <0>         0.0552
     32 H3         -4.2922    0.3352    6.8341 H         1 <0>         0.0548
     33 H4         -1.5592   -0.1355    5.5589 H         1 <0>         0.0657
     34 H5         -2.4859   -1.3300    6.4984 H         1 <0>         0.0650
     35 H6         -4.3364   -1.1879    4.8540 H         1 <0>         0.0748
     36 H7         -3.4097    0.0066    3.9145 H         1 <0>         0.0697
     37 H8         -1.6034   -1.6586    3.5788 H         1 <0>         0.0694
     38 H9         -2.5300   -2.8531    4.5184 H         1 <0>         0.0679
     39 H10        -4.1700   -1.9010    2.4254 H         1 <0>         0.4009
     40 H11        -1.1491   -3.7798    3.0342 H         1 <0>         0.1381
     41 H12        -0.3125   -5.5770    1.5758 H         1 <0>         0.1466
     42 H13        -3.6360   -5.0267   -1.0398 H         1 <0>         0.1525
     43 H14        -4.7307   -2.2210   -0.1111 H         1 <0>         0.4217
     44 H15        -6.3689   -4.2936    6.3113 H         1 <0>         0.1285
     45 H16        -4.7625   -6.3556    1.8693 H         1 <0>         0.0810
     46 H17        -5.9935   -7.2730    2.7700 H         1 <0>         0.0745
     47 H18        -6.4584   -6.3369    1.3292 H         1 <0>         0.1316
     48 H19        -6.8188   -7.1594    5.1823 H         1 <0>         0.0734
     49 H20        -5.2018   -7.2310    4.4417 H         1 <0>         0.0738
     50 H21        -5.4104   -6.5095    6.0555 H         1 <0>         0.0678
     51 H22        -7.8935   -1.6518    5.6875 H         1 <0>         0.0749
     52 H23        -6.3159   -1.8726    6.4817 H         1 <0>         0.0689
     53 H24        -6.4456   -0.8539    5.0278 H         1 <0>         0.0728
     54 H25        -7.7843   -1.3934    2.3250 H         1 <0>         0.1040
     55 H26        -6.5326   -0.6875    3.3754 H         1 <0>         0.0845
     56 H27        -6.0879   -1.3568    1.7872 H         1 <0>         0.0604
     57 H28        -2.1477   -8.8404   -0.9374 H         1 <0>         0.4216
     58 H29        -2.1964   -8.2214    0.6237 H         1 <0>         0.4164
@<TRIPOS>BOND
     1    1    2 1
     2    1   30 1
     3    1   31 1
     4    1   32 1
     5    2    3 1
     6    2   33 1
     7    2   34 1
     8    3    4 1
     9    3   35 1
    10    3   36 1
    11    4    5 1
    12    4   37 1
    13    4   38 1
    14    5    6 1
    15    5   39 1
    16    6   11 ar
    17    6    7 ar
    18    7    8 ar
    19    7   40 1
    20    8    9 ar
    21    8   41 1
    22    9   10 ar
    23    9   26 1
    24   10   11 ar
    25   10   42 1
    26   11   12 1
    27   12   13 1
    28   12   43 1
    29   13   14 2
    30   13   15 2
    31   13   16 1
    32   16   21 ar
    33   16   17 ar
    34   17   18 ar
    35   17   25 1
    36   18   19 ar
    37   18   24 1
    38   19   20 ar
    39   19   44 1
    40   20   21 ar
    41   20   23 1
    42   21   22 1
    43   22   45 1
    44   22   46 1
    45   22   47 1
    46   23   48 1
    47   23   49 1
    48   23   50 1
    49   24   51 1
    50   24   52 1
    51   24   53 1
    52   25   54 1
    53   25   55 1
    54   25   56 1
    55   26   27 2
    56   26   28 2
    57   26   29 1
    58   29   57 1
    59   29   58 1
@<TRIPOS>MOLECULE
ZINC04772744
   51    52     0     0     0
SMALL
USER_CHARGES
5-[(4-chlorophenyl)azo-(3,4-dimethylphenyl)-amino]pentane-1,2,3,4-tetraol
@<TRIPOS>ATOM
      1 C1          2.4387    1.1154   -0.9003 C.3       1 <0>        -0.1179
      2 C2          1.1387    1.8349   -0.6488 C.ar      1 <0>        -0.0929
      3 C3          0.8046    2.9418   -1.4080 C.ar      1 <0>        -0.0990
      4 C4         -0.3830    3.6068   -1.1765 C.ar      1 <0>        -0.1052
      5 C5         -1.2484    3.1560   -0.1871 C.ar      1 <0>         0.1273
      6 C6         -0.9095    2.0442    0.5738 C.ar      1 <0>        -0.1332
      7 C7          0.2828    1.3872    0.3406 C.ar      1 <0>        -0.0705
      8 C8          0.6511    0.1808    1.1652 C.3       1 <0>        -0.1181
      9 N1         -2.4535    3.8229    0.0460 N.pl3     1 <0>        -0.4330
     10 C9         -3.6991    3.0622    0.1724 C.3       1 <0>         0.1208
     11 C10        -4.2813    2.8024   -1.2185 C.3       1 <0>         0.0658
     12 H1         -3.5659    2.2322   -1.8111 H         1 <0>         0.1107
     13 C11        -5.5822    2.0079   -1.0865 C.3       1 <0>         0.0454
     14 H2         -5.3657    1.0218   -0.6757 H         1 <0>         0.1201
     15 C12        -6.2288    1.8555   -2.4648 C.3       1 <0>         0.0840
     16 H3         -5.5850    1.2506   -3.1033 H         1 <0>         0.1125
     17 C13        -7.5891    1.1709   -2.3172 C.3       1 <0>         0.0475
     18 O1         -8.1408    0.9235   -3.6119 O.3       1 <0>        -0.5654
     19 O2         -6.4062    3.1457   -3.0530 O.3       1 <0>        -0.5255
     20 O3         -6.4773    2.7011   -0.2145 O.3       1 <0>        -0.5501
     21 O4         -4.5480    4.0492   -1.8638 O.3       1 <0>        -0.5230
     22 N2         -2.4709    5.2192    0.1590 N.2       1 <0>         0.0561
     23 N3         -1.3635    5.8807    0.1517 N.2       1 <0>        -0.3092
     24 C14        -1.3805    7.2476    0.2623 C.ar      1 <0>         0.0986
     25 C15        -2.5947    7.9261    0.3771 C.ar      1 <0>        -0.1139
     26 C16        -2.6052    9.3006    0.4938 C.ar      1 <0>        -0.1036
     27 C17        -1.4148   10.0079    0.4857 C.ar      1 <0>        -0.0279
     28 C18        -0.2074    9.3408    0.3663 C.ar      1 <0>        -0.1039
     29 C19        -0.1839    7.9660    0.2547 C.ar      1 <0>        -0.0639
     30 Cl1        -1.4364   11.7381    0.6263 Cl        1 <0>        -0.0641
     31 H4          3.2212    1.5511   -0.2791 H         1 <0>         0.0709
     32 H5          2.3238    0.0601   -0.6527 H         1 <0>         0.0704
     33 H6          2.7115    1.2145   -1.9509 H         1 <0>         0.0659
     34 H7          1.4756    3.2889   -2.1798 H         1 <0>         0.1252
     35 H8         -0.6412    4.4736   -1.7667 H         1 <0>         0.1209
     36 H9         -1.5774    1.6942    1.3471 H         1 <0>         0.1222
     37 H10         1.2093    0.4991    2.0456 H         1 <0>         0.0718
     38 H11        -0.2560   -0.3366    1.4775 H         1 <0>         0.0651
     39 H12         1.2665   -0.4928    0.5688 H         1 <0>         0.0728
     40 H13        -3.4958    2.1112    0.6646 H         1 <0>         0.0964
     41 H14        -4.4145    3.6324    0.7650 H         1 <0>         0.1000
     42 H15        -7.4647    0.2259   -1.7885 H         1 <0>         0.0539
     43 H16        -8.2617    1.8170   -1.7530 H         1 <0>         0.0546
     44 H17        -9.0052    0.4902   -3.5948 H         1 <0>         0.3814
     45 H18        -6.9697    3.7389   -2.5375 H         1 <0>         0.3625
     46 H19        -6.7142    3.5881   -0.5182 H         1 <0>         0.3726
     47 H20        -5.1780    4.6100   -1.3909 H         1 <0>         0.3635
     48 H21        -3.5240    7.3758    0.3787 H         1 <0>         0.1393
     49 H22        -3.5439    9.8264    0.5875 H         1 <0>         0.1374
     50 H23         0.7179    9.8978    0.3610 H         1 <0>         0.1425
     51 H24         0.7585    7.4467    0.1621 H         1 <0>         0.1427
@<TRIPOS>BOND
     1    1    2 1
     2    1   31 1
     3    1   32 1
     4    1   33 1
     5    2    7 ar
     6    2    3 ar
     7    3    4 ar
     8    3   34 1
     9    4    5 ar
    10    4   35 1
    11    5    6 ar
    12    5    9 1
    13    6    7 ar
    14    6   36 1
    15    7    8 1
    16    8   37 1
    17    8   38 1
    18    8   39 1
    19    9   10 1
    20    9   22 1
    21   10   11 1
    22   10   40 1
    23   10   41 1
    24   11   12 1
    25   11   13 1
    26   11   21 1
    27   13   14 1
    28   13   15 1
    29   13   20 1
    30   15   16 1
    31   15   17 1
    32   15   19 1
    33   17   18 1
    34   17   42 1
    35   17   43 1
    36   18   44 1
    37   19   45 1
    38   20   46 1
    39   21   47 1
    40   22   23 2
    41   23   24 1
    42   24   29 ar
    43   24   25 ar
    44   25   26 ar
    45   25   48 1
    46   26   27 ar
    47   26   49 1
    48   27   28 ar
    49   27   30 1
    50   28   29 ar
    51   28   50 1
    52   29   51 1
@<TRIPOS>MOLECULE
ZINC20569458
   52    55     0     0     0
SMALL
USER_CHARGES
2-[[2-(benzenesulfonamido)benzoyl]amino]-4,5,6,7-tetrahydrobenzothiophene-3-carboxamide
@<TRIPOS>ATOM
      1 C1          4.4425    3.2675   -5.2200 C.ar      1 <0>        -0.0598
      2 C2          3.8076    4.3300   -4.6046 C.ar      1 <0>        -0.1399
      3 C3          3.9355    4.5157   -3.2408 C.ar      1 <0>        -0.0137
      4 C4          4.6988    3.6392   -2.4925 C.ar      1 <0>        -0.6768
      5 C5          5.3383    2.5799   -3.1088 C.ar      1 <0>        -0.0188
      6 C6          5.2058    2.3909   -4.4717 C.ar      1 <0>        -0.1401
      7 S1          4.8623    3.8761   -0.7541 S.o2      1 <0>         2.6892
      8 O1          4.6170    5.2538   -0.5072 O.2       1 <0>        -0.9430
      9 O2          6.0715    3.2367   -0.3690 O.2       1 <0>        -0.9506
     10 N1          3.6320    3.0387   -0.0279 N.pl3     1 <0>        -1.0569
     11 C7          3.5337    1.6638   -0.1966 C.ar      1 <0>         0.2396
     12 C8          4.6823    0.8860   -0.2769 C.ar      1 <0>        -0.1917
     13 C9          4.5821   -0.4790   -0.4496 C.ar      1 <0>        -0.0485
     14 C10         3.3391   -1.0858   -0.5399 C.ar      1 <0>        -0.1434
     15 C11         2.1890   -0.3323   -0.4576 C.ar      1 <0>        -0.0576
     16 C12         2.2733    1.0517   -0.2822 C.ar      1 <0>        -0.1700
     17 C13         1.0469    1.8641   -0.1939 C.2       1 <0>         0.5683
     18 O3          1.1247    3.0681   -0.0413 O.2       1 <0>        -0.5062
     19 N2         -0.1610    1.2727   -0.2823 N.am      1 <0>        -0.6270
     20 C14        -1.3139    2.0372   -0.2049 C.2       1 <0>         0.0773
     21 C15        -2.6344    1.6170   -0.2850 C.2       1 <0>        -0.2269
     22 C16        -3.6695    2.6300   -0.1683 C.2       1 <0>        -0.0660
     23 C17        -3.2218    3.8935   -0.0030 C.2       1 <0>        -0.2089
     24 S2         -1.4572    3.7508    0.0076 S.3       1 <0>         0.2236
     25 C18        -4.0493    5.1337    0.1385 C.3       1 <0>        -0.0378
     26 C19        -5.4835    4.8116   -0.3061 C.3       1 <0>        -0.1138
     27 C20        -5.9280    3.5099    0.3671 C.3       1 <0>        -0.1198
     28 C21        -5.1618    2.3279   -0.2293 C.3       1 <0>        -0.0610
     29 C22        -2.9721    0.2032   -0.4756 C.2       1 <0>         0.5844
     30 O4         -3.1328   -0.5197    0.4903 O.2       1 <0>        -0.5427
     31 N3         -3.1047   -0.2961   -1.7204 N.am      1 <0>        -0.8708
     32 H1          4.3420    3.1220   -6.2855 H         1 <0>         0.1325
     33 H2          3.2113    5.0149   -5.1892 H         1 <0>         0.1347
     34 H3          3.4395    5.3459   -2.7599 H         1 <0>         0.1413
     35 H4          5.9382    1.8976   -2.5248 H         1 <0>         0.1397
     36 H5          5.7015    1.5606   -4.9525 H         1 <0>         0.1345
     37 H6          2.8926    3.5715    0.5881 H         1 <0>         0.4689
     38 H7          5.6546    1.3512   -0.2083 H         1 <0>         0.1709
     39 H8          5.4779   -1.0787   -0.5153 H         1 <0>         0.1396
     40 H9          3.2720   -2.1551   -0.6758 H         1 <0>         0.1361
     41 H10         1.2232   -0.8103   -0.5289 H         1 <0>         0.1274
     42 H11        -0.2315    0.1831   -0.4159 H         1 <0>         0.4431
     43 H12        -4.0448    5.4595    1.1891 H         1 <0>         0.0830
     44 H13        -3.6286    5.9294   -0.4939 H         1 <0>         0.0813
     45 H14        -6.1526    5.6325   -0.0088 H         1 <0>         0.0744
     46 H15        -5.5108    4.6941   -1.3995 H         1 <0>         0.0681
     47 H16        -5.7241    3.5672    1.4465 H         1 <0>         0.0679
     48 H17        -7.0060    3.3627    0.2049 H         1 <0>         0.0706
     49 H18        -5.4631    2.1783   -1.2766 H         1 <0>         0.0759
     50 H19        -5.3752    1.4159    0.3474 H         1 <0>         0.0749
     51 H20        -3.3581   -1.3569   -1.8634 H         1 <0>         0.4226
     52 H21        -2.9595    0.3572   -2.5934 H         1 <0>         0.4220
@<TRIPOS>BOND
     1    1    6 ar
     2    1    2 ar
     3    1   32 1
     4    2    3 ar
     5    2   33 1
     6    3    4 ar
     7    3   34 1
     8    4    5 ar
     9    4    7 1
    10    5    6 ar
    11    5   35 1
    12    6   36 1
    13    7    8 2
    14    7    9 2
    15    7   10 1
    16   10   11 1
    17   10   37 1
    18   11   16 ar
    19   11   12 ar
    20   12   13 ar
    21   12   38 1
    22   13   14 ar
    23   13   39 1
    24   14   15 ar
    25   14   40 1
    26   15   16 ar
    27   15   41 1
    28   16   17 1
    29   17   18 2
    30   17   19 am
    31   19   20 1
    32   19   42 1
    33   20   24 1
    34   20   21 2
    35   21   22 1
    36   21   29 1
    37   22   28 1
    38   22   23 2
    39   23   24 1
    40   23   25 1
    41   25   26 1
    42   25   43 1
    43   25   44 1
    44   26   27 1
    45   26   45 1
    46   26   46 1
    47   27   28 1
    48   27   47 1
    49   27   48 1
    50   28   49 1
    51   28   50 1
    52   29   30 2
    53   29   31 am
    54   31   51 1
    55   31   52 1
@<TRIPOS>MOLECULE
ZINC08227749
   49    52     0     0     0
SMALL
USER_CHARGES

@<TRIPOS>ATOM
      1 C1         -0.2768    0.6929    2.9964 C.3       1 <0>        -0.1521
      2 C2         -0.2359   -0.7092    2.3853 C.3       1 <0>         0.0643
      3 O1         -1.5034   -1.0099    1.7980 O.3       1 <0>        -0.3451
      4 C3         -1.6358   -2.2188    1.2112 C.2       1 <0>         0.5162
      5 O2         -0.6985   -2.9958    1.1995 O.2       1 <0>        -0.4952
      6 C4         -2.8579   -2.5809    0.6127 C.2       1 <0>        -0.2148
      7 C5         -2.9346   -3.7425   -0.0878 C.2       1 <0>         0.2830
      8 N1         -4.1173   -4.1300   -0.6765 N.pl3     1 <0>        -0.6312
      9 C6         -5.3052   -3.5649   -0.2775 C.2       1 <0>         0.4550
     10 C7         -5.3192   -2.3910    0.4179 C.2       1 <0>        -0.2795
     11 C8         -6.5540   -1.8517    0.8102 C.2       1 <0>         0.5254
     12 N2         -7.6789   -2.4869    0.4984 N.2       1 <0>        -0.5544
     13 C9         -7.6546   -3.6292   -0.1820 C.2       1 <0>         0.5178
     14 S1         -9.1281   -4.4127   -0.5636 S.2       1 <0>        -0.5683
     15 N3         -6.4913   -4.1798   -0.5762 N.pl3     1 <0>        -0.5995
     16 N4         -6.5999   -0.6683    1.5154 N.pl3     1 <0>        -0.7972
     17 C10        -4.0464   -1.6771    0.7691 C.3       1 <0>         0.0825
     18 H1         -4.1006   -1.3328    1.8019 H         1 <0>         0.1004
     19 C11        -3.8854   -0.4862   -0.1402 C.ar      1 <0>        -0.0808
     20 C12        -3.7823   -0.6688   -1.5066 C.ar      1 <0>        -0.1041
     21 C13        -3.6346    0.4236   -2.3407 C.ar      1 <0>        -0.1158
     22 C14        -3.5903    1.6986   -1.8085 C.ar      1 <0>        -0.1152
     23 C15        -3.6942    1.8813   -0.4422 C.ar      1 <0>        -0.1129
     24 C16        -3.8463    0.7892    0.3916 C.ar      1 <0>        -0.1058
     25 C17        -1.7377   -4.5975   -0.2193 C.ar      1 <0>        -0.0718
     26 C18        -1.7135   -5.8653    0.3662 C.ar      1 <0>        -0.0881
     27 C19        -0.5924   -6.6588    0.2389 C.ar      1 <0>        -0.1209
     28 C20         0.5065   -6.2014   -0.4668 C.ar      1 <0>        -0.0947
     29 C21         0.4893   -4.9463   -1.0494 C.ar      1 <0>        -0.1186
     30 C22        -0.6270   -4.1444   -0.9346 C.ar      1 <0>        -0.0469
     31 H2          0.6901    0.9223    3.4444 H         1 <0>         0.0791
     32 H3         -0.4985    1.4224    2.2175 H         1 <0>         0.0668
     33 H4         -1.0509    0.7328    3.7627 H         1 <0>         0.0661
     34 H5          0.5383   -0.7491    1.6191 H         1 <0>         0.0662
     35 H6         -0.0141   -1.4387    3.1642 H         1 <0>         0.0665
     36 H7         -4.1123   -4.8036   -1.3744 H         1 <0>         0.4306
     37 H8         -7.4545   -0.2975    1.7855 H         1 <0>         0.4208
     38 H9         -5.7775   -0.2063    1.7416 H         1 <0>         0.4165
     39 H10        -3.8169   -1.6649   -1.9224 H         1 <0>         0.1090
     40 H11        -3.5534    0.2809   -3.4081 H         1 <0>         0.1214
     41 H12        -3.4741    2.5520   -2.4601 H         1 <0>         0.1229
     42 H13        -3.6593    2.8774   -0.0263 H         1 <0>         0.1250
     43 H14        -3.9312    0.9322    1.4587 H         1 <0>         0.1233
     44 H15        -2.5703   -6.2233    0.9175 H         1 <0>         0.1217
     45 H16        -0.5721   -7.6392    0.6914 H         1 <0>         0.1278
     46 H17         1.3818   -6.8267   -0.5630 H         1 <0>         0.1259
     47 H18         1.3505   -4.5956   -1.5988 H         1 <0>         0.1270
     48 H19        -0.6408   -3.1669   -1.3936 H         1 <0>         0.1191
     49 H20        -6.4934   -5.0132   -1.0725 H         1 <0>         0.4325
@<TRIPOS>BOND
     1    1    2 1
     2    1   31 1
     3    1   32 1
     4    1   33 1
     5    2    3 1
     6    2   34 1
     7    2   35 1
     8    3    4 1
     9    4    5 2
    10    4    6 1
    11    6   17 1
    12    6    7 2
    13    7    8 1
    14    7   25 1
    15    8    9 1
    16    8   36 1
    17    9   10 2
    18    9   15 1
    19   10   17 1
    20   10   11 1
    21   11   12 2
    22   11   16 1
    23   12   13 1
    24   13   15 1
    25   13   14 2
    26   15   49 1
    27   16   38 1
    28   16   37 1
    29   17   18 1
    30   17   19 1
    31   19   24 ar
    32   19   20 ar
    33   20   21 ar
    34   20   39 1
    35   21   22 ar
    36   21   40 1
    37   22   23 ar
    38   22   41 1
    39   23   24 ar
    40   23   42 1
    41   24   43 1
    42   25   30 ar
    43   25   26 ar
    44   26   27 ar
    45   26   44 1
    46   27   28 ar
    47   27   45 1
    48   28   29 ar
    49   28   46 1
    50   29   30 ar
    51   29   47 1
    52   30   48 1
@<TRIPOS>MOLECULE
ZINC09130176
   42    44     0     0     0
SMALL
USER_CHARGES

@<TRIPOS>ATOM
      1 C1         -0.4535    2.2330   -0.0555 C.ar      1 <0>        -0.1044
      2 C2          0.8572    2.6728   -0.0214 C.ar      1 <0>        -0.0745
      3 C3          1.8959    1.7626   -0.0825 C.ar      1 <0>        -0.0839
      4 C4          1.6268    0.4108   -0.1783 C.ar      1 <0>        -0.1303
      5 C5          0.3130   -0.0328   -0.2127 C.ar      1 <0>         0.1050
      6 C6         -0.7278    0.8827   -0.1508 C.ar      1 <0>        -0.1348
      7 O1          0.0456   -1.3619   -0.3070 O.3       1 <0>        -0.4989
      8 C7          3.3230    2.2453   -0.0451 C.3       1 <0>         0.2059
      9 H1          3.9254    1.5558    0.5464 H         1 <0>         0.1177
     10 C8          3.8776    2.3153   -1.4719 C.3       1 <0>        -0.1441
     11 H2          3.7659    1.3451   -1.9561 H         1 <0>         0.1444
     12 C9          3.0882    3.3730   -2.2507 C.3       1 <0>         0.3302
     13 N1          3.1506    4.6458   -1.5304 N.am      1 <0>        -0.7292
     14 C10         3.2804    4.6866   -0.1960 C.2       1 <0>         0.7393
     15 O2          3.3159    5.7702    0.3543 O.2       1 <0>        -0.5705
     16 N2          3.3729    3.5786    0.5569 N.am      1 <0>        -0.7253
     17 C11         3.6980    3.5433   -3.6436 C.3       1 <0>         0.4207
     18 F1          3.7974    2.2938   -4.2651 F         1 <0>        -0.1616
     19 F2          2.8821    4.3819   -4.4105 F         1 <0>        -0.1714
     20 F3          4.9720    4.1098   -3.5289 F         1 <0>        -0.1613
     21 O3          1.7259    2.9590   -2.3718 O.3       1 <0>        -0.5133
     22 C12         5.3353    2.6952   -1.4303 C.2       1 <0>         0.3926
     23 O4          5.6584    3.8302   -1.1513 O.2       1 <0>        -0.3995
     24 C13         6.3663    1.6892   -1.7280 C.ar      1 <0>        -0.1653
     25 C14         6.0042    0.3562   -1.9500 C.ar      1 <0>        -0.0626
     26 C15         6.9756   -0.5808   -2.2289 C.ar      1 <0>        -0.1188
     27 C16         8.3081   -0.2055   -2.2892 C.ar      1 <0>        -0.0011
     28 C17         8.6740    1.1130   -2.0704 C.ar      1 <0>        -0.1199
     29 C18         7.7130    2.0619   -1.7962 C.ar      1 <0>        -0.0395
     30 Cl1         9.5249   -1.3929   -2.6400 Cl        1 <0>        -0.0530
     31 H3         -1.2632    2.9457   -0.0030 H         1 <0>         0.1256
     32 H4          1.0696    3.7291    0.0528 H         1 <0>         0.1178
     33 H5          2.4386   -0.2998   -0.2268 H         1 <0>         0.1280
     34 H6         -1.7516    0.5397   -0.1771 H         1 <0>         0.1274
     35 H7         -0.0339   -1.8087    0.5470 H         1 <0>         0.3910
     36 H8          3.0967    5.4766   -2.0282 H         1 <0>         0.4218
     37 H9          3.4746    3.6626    1.5179 H         1 <0>         0.4253
     38 H10         1.1667    3.5828   -2.8549 H         1 <0>         0.3925
     39 H11         4.9661    0.0622   -1.9026 H         1 <0>         0.1418
     40 H12         6.6975   -1.6102   -2.4005 H         1 <0>         0.1454
     41 H13         9.7145    1.3983   -2.1187 H         1 <0>         0.1446
     42 H14         7.9992    3.0899   -1.6300 H         1 <0>         0.1462
@<TRIPOS>BOND
     1    1    6 ar
     2    1    2 ar
     3    1   31 1
     4    2    3 ar
     5    2   32 1
     6    3    4 ar
     7    3    8 1
     8    4    5 ar
     9    4   33 1
    10    5    6 ar
    11    5    7 1
    12    6   34 1
    13    7   35 1
    14    8    9 1
    15    8   16 1
    16    8   10 1
    17   10   11 1
    18   10   12 1
    19   10   22 1
    20   12   13 1
    21   12   17 1
    22   12   21 1
    23   13   14 am
    24   13   36 1
    25   14   15 2
    26   14   16 am
    27   16   37 1
    28   17   18 1
    29   17   19 1
    30   17   20 1
    31   21   38 1
    32   22   23 2
    33   22   24 1
    34   24   29 ar
    35   24   25 ar
    36   25   26 ar
    37   25   39 1
    38   26   27 ar
    39   26   40 1
    40   27   28 ar
    41   27   30 1
    42   28   29 ar
    43   28   41 1
    44   29   42 1
@<TRIPOS>MOLECULE
ZINC61882584
   39    40     0     0     0
SMALL
USER_CHARGES

@<TRIPOS>ATOM
      1 C1          7.3151   -3.6051   -2.2579 C.ar      1 <0>        -0.1383
      2 C2          6.0891   -3.2843   -2.8107 C.ar      1 <0>        -0.0005
      3 C3          5.1959   -2.4965   -2.1063 C.ar      1 <0>        -0.0489
      4 C4          5.5261   -2.0276   -0.8479 C.ar      1 <0>        -0.5746
      5 C5          6.7497   -2.3442   -0.2901 C.ar      1 <0>        -0.0961
      6 C6          7.6493   -3.1358   -0.9947 C.ar      1 <0>         0.2421
      7 N1          8.8873   -3.4584   -0.4329 N.pl3     1 <0>        -0.8637
      8 Br1         7.2004   -1.7013    1.4302 Br        1 <0>        -0.0252
      9 S1          4.3851   -1.0247    0.0449 S.o2      1 <0>         2.6935
     10 O1          5.0775    0.1661    0.3937 O.2       1 <0>        -0.9506
     11 O2          3.1798   -1.0125   -0.7077 O.2       1 <0>        -0.9185
     12 N2          4.0491   -1.8098    1.4638 N.pl3     1 <0>        -1.0981
     13 C7          3.0095   -2.8413    1.5018 C.3       1 <0>         0.1948
     14 C8          1.6534   -2.2108    1.1789 C.3       1 <0>        -0.1521
     15 C9          1.3355   -1.1279    2.2120 C.3       1 <0>        -0.1193
     16 C10         1.2880   -1.7529    3.6078 C.3       1 <0>        -0.1221
     17 C11         2.6441   -2.3834    3.9307 C.3       1 <0>        -0.1193
     18 C12         2.9620   -3.4663    2.8976 C.3       1 <0>        -0.1151
     19 C13         3.3274   -3.9241    0.4687 C.3       1 <0>         0.0449
     20 O3          3.2070   -3.3779   -0.8463 O.3       1 <0>        -0.5536
     21 Cl1         5.6702   -3.8700   -4.3903 Cl        1 <0>        -0.0476
     22 H1          8.0102   -4.2237   -2.8062 H         1 <0>         0.1467
     23 H2          4.2389   -2.2469   -2.5403 H         1 <0>         0.1657
     24 H3          9.5143   -4.0109   -0.9255 H         1 <0>         0.4071
     25 H4          9.1198   -3.1300    0.4497 H         1 <0>         0.4066
     26 H5          4.5407   -1.5867    2.2697 H         1 <0>         0.4157
     27 H6          1.6873   -1.7655    0.1846 H         1 <0>         0.1232
     28 H7          0.8799   -2.9783    1.2073 H         1 <0>         0.0710
     29 H8          2.1090   -0.3605    2.1837 H         1 <0>         0.0578
     30 H9          0.3694   -0.6787    1.9820 H         1 <0>         0.0655
     31 H10         1.0615   -0.9815    4.3438 H         1 <0>         0.0622
     32 H11         0.5145   -2.5204    3.6361 H         1 <0>         0.0633
     33 H12         3.4176   -1.6160    3.9023 H         1 <0>         0.0633
     34 H13         2.6103   -2.8287    4.9250 H         1 <0>         0.0674
     35 H14         2.1885   -4.2337    2.9259 H         1 <0>         0.0812
     36 H15         3.9282   -3.9155    3.1276 H         1 <0>         0.0714
     37 H16         4.3450   -4.2840    0.6209 H         1 <0>         0.0533
     38 H17         2.6282   -4.7524    0.5836 H         1 <0>         0.0676
     39 H18         3.3949   -4.0101   -1.5535 H         1 <0>         0.3791
@<TRIPOS>BOND
     1    1    6 ar
     2    1    2 ar
     3    1   22 1
     4    2    3 ar
     5    2   21 1
     6    3    4 ar
     7    3   23 1
     8    4    5 ar
     9    4    9 1
    10    5    6 ar
    11    5    8 1
    12    6    7 1
    13    7   24 1
    14    7   25 1
    15    9   10 2
    16    9   11 2
    17    9   12 1
    18   12   13 1
    19   12   26 1
    20   13   18 1
    21   13   14 1
    22   13   19 1
    23   14   15 1
    24   14   27 1
    25   14   28 1
    26   15   16 1
    27   15   29 1
    28   15   30 1
    29   16   17 1
    30   16   31 1
    31   16   32 1
    32   17   18 1
    33   17   33 1
    34   17   34 1
    35   18   35 1
    36   18   36 1
    37   19   20 1
    38   19   37 1
    39   19   38 1
    40   20   39 1
@<TRIPOS>MOLECULE
ZINC04946030
   48    50     0     0     0
SMALL
USER_CHARGES
(2-diethoxyphosphorylaminofluoren-9-ylidene)aminothiourea
@<TRIPOS>ATOM
      1 C1         -5.5987    9.3593    3.5137 C.3       1 <0>        -0.1586
      2 C2         -5.9575    8.1873    2.5980 C.3       1 <0>         0.1154
      3 O1         -5.6966    8.5467    1.2398 O.3       1 <0>        -0.7497
      4 P1         -5.9595    7.5501    0.0029 P.3       1 <0>         2.4703
      5 O2         -7.3267    6.9918    0.1013 O.2       1 <0>        -1.0465
      6 N1         -4.8660    6.3286    0.0431 N.pl3     1 <0>        -1.1031
      7 C3         -3.5006    6.6109   -0.0355 C.ar      1 <0>         0.1916
      8 C4         -3.0700    7.9298   -0.1474 C.ar      1 <0>        -0.1689
      9 C5         -1.7250    8.2215   -0.2183 C.ar      1 <0>        -0.0321
     10 C6         -0.7835    7.1926   -0.1898 C.ar      1 <0>        -0.0589
     11 C7         -1.2169    5.8596   -0.0798 C.ar      1 <0>        -0.0791
     12 C8         -2.5773    5.5763   -0.0013 C.ar      1 <0>        -0.1288
     13 C9         -0.0179    4.9933   -0.0695 C.2       1 <0>         0.2183
     14 N2         -0.0019    3.6883    0.0221 N.2       1 <0>        -0.2454
     15 N3         -1.1871    2.9901    0.2879 N.pl3     1 <0>        -0.5376
     16 C10        -1.1964    1.6427    0.2593 C.2       1 <0>         0.5960
     17 S1         -2.6447    0.7896    0.5841 S.2       1 <0>        -0.6029
     18 N4         -0.0654    0.9669   -0.0249 N.pl3     1 <0>        -0.7808
     19 C11         1.1589    5.8809   -0.1887 C.ar      1 <0>        -0.0652
     20 C12         0.6933    7.2053   -0.2610 C.ar      1 <0>        -0.0253
     21 C13         1.6111    8.2484   -0.3781 C.ar      1 <0>        -0.0938
     22 C14         2.9628    7.9756   -0.4234 C.ar      1 <0>        -0.0908
     23 C15         3.4198    6.6696   -0.3525 C.ar      1 <0>        -0.1161
     24 C16         2.5271    5.6237   -0.2355 C.ar      1 <0>        -0.0598
     25 O3         -5.8088    8.3601   -1.3803 O.3       1 <0>        -0.7507
     26 C17        -6.2770    7.8555   -2.6326 C.3       1 <0>         0.1166
     27 C18        -5.9762    8.8715   -3.7364 C.3       1 <0>        -0.1588
     28 H1         -5.7977    9.0851    4.5497 H         1 <0>         0.0797
     29 H2         -4.5419    9.6003    3.3982 H         1 <0>         0.0656
     30 H3         -6.2008   10.2274    3.2455 H         1 <0>         0.0706
     31 H4         -7.0142    7.9462    2.7135 H         1 <0>         0.0768
     32 H5         -5.3554    7.3191    2.8661 H         1 <0>         0.0576
     33 H6         -5.1676    5.4100    0.1214 H         1 <0>         0.4326
     34 H7         -3.7945    8.7303   -0.1730 H         1 <0>         0.1339
     35 H8         -1.3998    9.2476   -0.3069 H         1 <0>         0.1457
     36 H9         -2.9132    4.5536    0.0862 H         1 <0>         0.1289
     37 H10        -2.0011    3.4765    0.4924 H         1 <0>         0.4189
     38 H11        -0.0721   -0.0028   -0.0454 H         1 <0>         0.4343
     39 H12         0.7542    1.4504   -0.2128 H         1 <0>         0.4093
     40 H13         1.2640    9.2695   -0.4336 H         1 <0>         0.1343
     41 H14         3.6703    8.7865   -0.5145 H         1 <0>         0.1358
     42 H15         4.4804    6.4689   -0.3887 H         1 <0>         0.1363
     43 H16         2.8886    4.6075   -0.1806 H         1 <0>         0.1340
     44 H17        -5.7728    6.9155   -2.8569 H         1 <0>         0.0573
     45 H18        -7.3524    7.6869   -2.5773 H         1 <0>         0.0774
     46 H19        -6.3332    8.4866   -4.6916 H         1 <0>         0.0797
     47 H20        -6.4803    9.8115   -3.5121 H         1 <0>         0.0705
     48 H21        -4.9007    9.0401   -3.7917 H         1 <0>         0.0653
@<TRIPOS>BOND
     1    1    2 1
     2    1   28 1
     3    1   29 1
     4    1   30 1
     5    2    3 1
     6    2   31 1
     7    2   32 1
     8    3    4 1
     9    4    5 2
    10    4    6 1
    11    4   25 1
    12    6    7 1
    13    6   33 1
    14    7   12 ar
    15    7    8 ar
    16    8    9 ar
    17    8   34 1
    18    9   10 ar
    19    9   35 1
    20   10   20 1
    21   10   11 ar
    22   11   12 ar
    23   11   13 1
    24   12   36 1
    25   13   14 2
    26   13   19 1
    27   14   15 1
    28   15   16 1
    29   15   37 1
    30   16   17 2
    31   16   18 1
    32   18   38 1
    33   18   39 1
    34   19   24 ar
    35   19   20 ar
    36   20   21 ar
    37   21   22 ar
    38   21   40 1
    39   22   23 ar
    40   22   41 1
    41   23   24 ar
    42   23   42 1
    43   24   43 1
    44   25   26 1
    45   26   27 1
    46   26   44 1
    47   26   45 1
    48   27   46 1
    49   27   47 1
    50   27   48 1
@<TRIPOS>MOLECULE
ZINC01123417
   38    40     0     0     0
SMALL
USER_CHARGES
2-[(2-bromobenzoyl)carbamothioylamino]-5,6-dihydro-4H-cyclopenta[d]thiophene-3-carboxamide
@<TRIPOS>ATOM
      1 C1          0.4035    1.5691   -8.7342 C.ar      1 <0>        -0.1096
      2 C2          1.1538    2.0280   -9.8031 C.ar      1 <0>        -0.0784
      3 C3          2.3286    2.7239   -9.5837 C.ar      1 <0>        -0.0954
      4 C4          2.7609    2.9656   -8.2945 C.ar      1 <0>        -0.0386
      5 C5          2.0081    2.5050   -7.2115 C.ar      1 <0>        -0.1171
      6 C6          0.8257    1.7984   -7.4417 C.ar      1 <0>        -0.0826
      7 C7          2.4639    2.7589   -5.8296 C.2       1 <0>         0.5264
      8 O1          3.4959    3.3697   -5.6326 O.2       1 <0>        -0.3741
      9 N1          1.7352    2.3131   -4.7871 N.am      1 <0>        -0.6321
     10 C8          2.1510    2.5447   -3.5262 C.2       1 <0>         0.4780
     11 S1          3.6048    3.4052   -3.2487 S.2       1 <0>        -0.3650
     12 N2          1.4223    2.0990   -2.4837 N.pl3     1 <0>        -0.5531
     13 C9          1.8498    2.3371   -1.1874 C.2       1 <0>         0.0129
     14 C10         1.2449    1.9631    0.0007 C.2       1 <0>        -0.1749
     15 C11         1.9052    2.3491    1.2475 C.2       1 <0>        -0.1159
     16 C12         3.0569    3.0273    1.0975 C.2       1 <0>        -0.2563
     17 S2          3.2691    3.1752   -0.6597 S.3       1 <0>         0.3466
     18 C13         3.6810    3.3791    2.4208 C.3       1 <0>        -0.0381
     19 C14         2.9863    2.4479    3.4387 C.3       1 <0>        -0.1192
     20 C15         1.6386    2.1718    2.7429 C.3       1 <0>        -0.0602
     21 C16        -0.0144    1.2130    0.0087 C.2       1 <0>         0.5777
     22 O2          0.0021   -0.0041    0.0020 O.2       1 <0>        -0.5341
     23 N3         -1.1906    1.8709    0.0179 N.am      1 <0>        -0.8488
     24 Br1         4.3678    3.9168   -7.9961 Br        1 <0>         0.0037
     25 H1         -0.5129    1.0263   -8.9131 H         1 <0>         0.1405
     26 H2          0.8204    1.8414  -10.8132 H         1 <0>         0.1423
     27 H3          2.9093    3.0788  -10.4222 H         1 <0>         0.1456
     28 H4          0.2411    1.4360   -6.6090 H         1 <0>         0.1303
     29 H5          0.9115    1.8256   -4.9443 H         1 <0>         0.4131
     30 H6          0.5986    1.6114   -2.6409 H         1 <0>         0.4126
     31 H7          4.7534    3.1856    2.3988 H         1 <0>         0.0775
     32 H8          3.4872    4.4232    2.6669 H         1 <0>         0.0827
     33 H9          3.5520    1.5259    3.5732 H         1 <0>         0.0743
     34 H10         2.8365    2.9546    4.3921 H         1 <0>         0.0798
     35 H11         1.3076    1.1545    2.9519 H         1 <0>         0.0682
     36 H12         0.8879    2.8881    3.0769 H         1 <0>         0.0745
     37 H13        -2.0240    1.3746    0.0191 H         1 <0>         0.4025
     38 H14        -1.2038    2.8408    0.0232 H         1 <0>         0.4041
@<TRIPOS>BOND
     1    1    6 ar
     2    1    2 ar
     3    1   25 1
     4    2    3 ar
     5    2   26 1
     6    3    4 ar
     7    3   27 1
     8    4    5 ar
     9    4   24 1
    10    5    6 ar
    11    5    7 1
    12    6   28 1
    13    7    8 2
    14    7    9 am
    15    9   10 1
    16    9   29 1
    17   10   11 2
    18   10   12 1
    19   12   13 1
    20   12   30 1
    21   13   17 1
    22   13   14 2
    23   14   15 1
    24   14   21 1
    25   15   20 1
    26   15   16 2
    27   16   17 1
    28   16   18 1
    29   18   19 1
    30   18   31 1
    31   18   32 1
    32   19   20 1
    33   19   33 1
    34   19   34 1
    35   20   35 1
    36   20   36 1
    37   21   22 2
    38   21   23 am
    39   23   37 1
    40   23   38 1
@<TRIPOS>MOLECULE
ZINC36821233
   49    51     0     0     0
SMALL
USER_CHARGES

@<TRIPOS>ATOM
      1 C1          0.5589    1.2833   -0.6935 C.3       1 <0>        -0.1483
      2 C2          0.4397   -0.2351   -0.5489 C.3       1 <0>        -0.0864
      3 H1          0.8796   -0.7211   -1.4198 H         1 <0>         0.0775
      4 C3         -1.0366   -0.6260   -0.4334 C.3       1 <0>        -0.1150
      5 C4         -1.1803   -2.1443   -0.5375 C.3       1 <0>        -0.0714
      6 C5         -0.2487   -2.8004    0.4784 C.2       1 <0>        -0.0800
      7 C6          0.7839   -2.1089    1.0101 C.2       1 <0>        -0.1525
      8 S1          1.5835   -3.2413    2.1194 S.3       1 <0>         0.1270
      9 C7          0.5352   -4.6379    1.8718 C.ar      1 <0>         0.1447
     10 C8         -0.4125   -4.1750    0.9245 C.ar      1 <0>        -0.2498
     11 C9         -1.4179   -5.0970    0.5126 C.ar      1 <0>         0.5065
     12 N1         -1.3611   -6.3062    1.0654 N.ar      1 <0>        -0.6058
     13 C10        -0.4437   -6.6726    1.9480 C.ar      1 <0>         0.3373
     14 N2          0.5233   -5.8566    2.3741 N.ar      1 <0>        -0.4726
     15 S2         -0.5027   -8.3126    2.5896 S.3       1 <0>         0.1062
     16 C11        -1.9361   -9.0560    1.7630 C.3       1 <0>        -0.1551
     17 C12        -2.1021  -10.4795    2.2288 C.2       1 <0>         0.5376
     18 O1         -1.3298  -10.9464    3.0383 O.2       1 <0>        -0.4454
     19 N3         -3.1091  -11.2336    1.7454 N.am      1 <0>        -0.6866
     20 C13        -3.2576  -12.5068    2.1619 C.2       1 <0>         0.6943
     21 O2         -2.4833  -12.9749    2.9734 O.2       1 <0>        -0.5241
     22 N4         -4.2646  -13.2609    1.6785 N.am      1 <0>        -0.7326
     23 C14        -4.4260  -14.6448    2.1313 C.3       1 <0>         0.1510
     24 C15        -5.2308  -14.6652    3.4323 C.3       1 <0>        -0.1668
     25 C16        -5.1667  -15.4486    1.0607 C.3       1 <0>        -0.1613
     26 N5         -2.3940   -4.7557   -0.4058 N.pl3     1 <0>        -0.8270
     27 C17         1.1729   -0.6909    0.7205 C.3       1 <0>        -0.0360
     28 H2          1.6106    1.5596   -0.7697 H         1 <0>         0.0593
     29 H3          0.0327    1.6052   -1.5922 H         1 <0>         0.0597
     30 H4          0.1184    1.7670    0.1783 H         1 <0>         0.0581
     31 H5         -1.4261   -0.2903    0.5277 H         1 <0>         0.0697
     32 H6         -1.6007   -0.1527   -1.2371 H         1 <0>         0.0742
     33 H7         -2.2108   -2.4289   -0.3246 H         1 <0>         0.0786
     34 H8         -0.9106   -2.4684   -1.5426 H         1 <0>         0.0808
     35 H9         -2.8326   -8.4866    2.0082 H         1 <0>         0.1306
     36 H10        -1.7808   -9.0424    0.6842 H         1 <0>         0.1308
     37 H11        -3.7270  -10.8601    1.0977 H         1 <0>         0.4117
     38 H12        -4.8825  -12.8873    1.0308 H         1 <0>         0.3980
     39 H13        -3.4449  -15.0873    2.3040 H         1 <0>         0.0920
     40 H14        -6.2119  -14.2226    3.2596 H         1 <0>         0.0571
     41 H15        -5.3509  -15.6948    3.7692 H         1 <0>         0.0693
     42 H16        -4.7031  -14.0925    4.1950 H         1 <0>         0.0621
     43 H17        -4.5934  -15.4341    0.1338 H         1 <0>         0.0629
     44 H18        -5.2868  -16.4782    1.3976 H         1 <0>         0.0771
     45 H19        -6.1478  -15.0060    0.8880 H         1 <0>         0.0620
     46 H20        -2.2775   -3.9752   -0.9699 H         1 <0>         0.4166
     47 H21        -3.1950   -5.2968   -0.4859 H         1 <0>         0.4097
     48 H22         2.2497   -0.6283    0.5638 H         1 <0>         0.0862
     49 H23         0.8843   -0.0558    1.5580 H         1 <0>         0.0879
@<TRIPOS>BOND
     1    1    2 1
     2    1   28 1
     3    1   29 1
     4    1   30 1
     5    2    3 1
     6    2   27 1
     7    2    4 1
     8    4    5 1
     9    4   31 1
    10    4   32 1
    11    5    6 1
    12    5   33 1
    13    5   34 1
    14    6   10 1
    15    6    7 2
    16    7    8 1
    17    7   27 1
    18    8    9 1
    19    9   14 ar
    20    9   10 ar
    21   10   11 ar
    22   11   12 ar
    23   11   26 1
    24   12   13 ar
    25   13   14 ar
    26   13   15 1
    27   15   16 1
    28   16   17 1
    29   16   35 1
    30   16   36 1
    31   17   18 2
    32   17   19 am
    33   19   20 am
    34   19   37 1
    35   20   21 2
    36   20   22 am
    37   22   23 1
    38   22   38 1
    39   23   24 1
    40   23   25 1
    41   23   39 1
    42   24   40 1
    43   24   41 1
    44   24   42 1
    45   25   43 1
    46   25   44 1
    47   25   45 1
    48   26   46 1
    49   26   47 1
    50   27   48 1
    51   27   49 1
@<TRIPOS>MOLECULE
ZINC46575641
   52    53     0     0     0
SMALL
USER_CHARGES

@<TRIPOS>ATOM
      1 C1          1.5010    1.4354    0.1062 C.3       1 <0>        -0.1229
      2 C2          1.2136   -0.0439    0.0898 C.ar      1 <0>        -0.0598
      3 C3          0.9348   -0.6778   -1.1088 C.ar      1 <0>        -0.1229
      4 C4          0.6704   -2.0307   -1.1320 C.ar      1 <0>        -0.0510
      5 C5          0.6849   -2.7628    0.0595 C.ar      1 <0>        -0.0955
      6 C6          0.9678   -2.1154    1.2660 C.ar      1 <0>        -0.0866
      7 C7          1.2353   -0.7625    1.2722 C.ar      1 <0>        -0.0972
      8 C8          1.5466   -0.0638    2.5706 C.3       1 <0>        -0.1179
      9 C9          0.4032   -4.2076    0.0435 C.2       1 <0>         0.0173
     10 C10         0.4181   -4.9100    1.1941 C.2       1 <0>        -0.2310
     11 C11         0.1379   -6.3471    1.1782 C.2       1 <0>         0.5611
     12 O1         -0.1084   -6.9075    0.1264 O.2       1 <0>        -0.5245
     13 N1          0.1528   -7.0494    2.3285 N.am      1 <0>        -0.5488
     14 N2         -0.1153   -8.4244    2.3133 N.pl3     1 <0>        -0.4606
     15 C12        -0.1005   -9.1266    3.4636 C.2       1 <0>         0.5542
     16 S1         -0.4280  -10.8069    3.4450 S.2       1 <0>        -0.5675
     17 N3          0.1723   -8.5061    4.6284 N.pl3     1 <0>        -0.6289
     18 C13         0.0722   -9.2074    5.8347 C.ar      1 <0>         0.1384
     19 C14         1.0294   -9.0268    6.8257 C.ar      1 <0>        -0.1343
     20 C15         0.9312   -9.7189    8.0171 C.ar      1 <0>        -0.0937
     21 C16        -0.1184  -10.5927    8.2275 C.ar      1 <0>        -0.1128
     22 C17        -1.0788  -10.7773    7.2411 C.ar      1 <0>         0.1536
     23 C18        -0.9860  -10.0796    6.0452 C.ar      1 <0>        -0.0998
     24 N4         -2.1411  -11.6625    7.4548 N.am      1 <0>        -0.6719
     25 C19        -2.6669  -11.7989    8.6883 C.2       1 <0>         0.5115
     26 O2         -2.1687  -11.2156    9.6278 O.2       1 <0>        -0.5270
     27 C20        -3.8739  -12.6760    8.9001 C.3       1 <0>        -0.1744
     28 C21         0.3662   -2.7187   -2.4378 C.3       1 <0>        -0.1261
     29 H1          2.5705    1.5992   -0.0254 H         1 <0>         0.0755
     30 H2          0.9567    1.9203   -0.7042 H         1 <0>         0.0699
     31 H3          1.1836    1.8566    1.0601 H         1 <0>         0.0722
     32 H4          0.9240   -0.1110   -2.0281 H         1 <0>         0.1285
     33 H5          0.9808   -2.6741    2.1902 H         1 <0>         0.1276
     34 H6          0.6214    0.2978    3.0195 H         1 <0>         0.0724
     35 H7          2.0321   -0.7625    3.2519 H         1 <0>         0.0671
     36 H8          2.2113    0.7787    2.3797 H         1 <0>         0.0712
     37 H9          0.1847   -4.7049   -0.8899 H         1 <0>         0.1420
     38 H10         0.6366   -4.4127    2.1276 H         1 <0>         0.1362
     39 H11         0.3491   -6.6027    3.1669 H         1 <0>         0.4215
     40 H12        -0.3116   -8.8710    1.4749 H         1 <0>         0.4616
     41 H13         0.4380   -7.5732    4.6304 H         1 <0>         0.4020
     42 H14         1.8512   -8.3449    6.6641 H         1 <0>         0.1262
     43 H15         1.6767   -9.5772    8.7856 H         1 <0>         0.1336
     44 H16        -0.1920  -11.1329    9.1598 H         1 <0>         0.1429
     45 H17        -1.7335  -10.2185    5.2781 H         1 <0>         0.1474
     46 H18        -2.4991  -12.1781    6.7153 H         1 <0>         0.4156
     47 H19        -3.6382  -13.6971    8.6000 H         1 <0>         0.0930
     48 H20        -4.1526  -12.6622    9.9538 H         1 <0>         0.0972
     49 H21        -4.7038  -12.3033    8.2998 H         1 <0>         0.0924
     50 H22         1.2935   -3.0779   -2.8840 H         1 <0>         0.0777
     51 H23        -0.3007   -3.5619   -2.2575 H         1 <0>         0.0724
     52 H24        -0.1144   -2.0140   -3.1164 H         1 <0>         0.0729
@<TRIPOS>BOND
     1    1    2 1
     2    1   29 1
     3    1   30 1
     4    1   31 1
     5    2    7 ar
     6    2    3 ar
     7    3    4 ar
     8    3   32 1
     9    4    5 ar
    10    4   28 1
    11    5    6 ar
    12    5    9 1
    13    6    7 ar
    14    6   33 1
    15    7    8 1
    16    8   34 1
    17    8   35 1
    18    8   36 1
    19    9   10 2
    20    9   37 1
    21   10   11 1
    22   10   38 1
    23   11   12 2
    24   11   13 am
    25   13   14 1
    26   13   39 1
    27   14   15 1
    28   14   40 1
    29   15   16 2
    30   15   17 1
    31   17   18 1
    32   17   41 1
    33   18   23 ar
    34   18   19 ar
    35   19   20 ar
    36   19   42 1
    37   20   21 ar
    38   20   43 1
    39   21   22 ar
    40   21   44 1
    41   22   23 ar
    42   22   24 1
    43   23   45 1
    44   24   25 am
    45   24   46 1
    46   25   26 2
    47   25   27 1
    48   27   47 1
    49   27   48 1
    50   27   49 1
    51   28   50 1
    52   28   51 1
    53   28   52 1
@<TRIPOS>MOLECULE
ZINC06585218
   43    45     0     0     0
SMALL
USER_CHARGES

@<TRIPOS>ATOM
      1 C1         -0.0862    1.4161   -0.2090 C.ar      1 <0>        -0.0426
      2 C2          1.0902    2.1325   -0.1743 C.ar      1 <0>        -0.1244
      3 C3          2.2939    1.4833    0.0766 C.ar      1 <0>         0.1690
      4 C4          2.3144    0.1100    0.2931 C.ar      1 <0>        -0.1493
      5 C5          1.1412   -0.6116    0.2597 C.ar      1 <0>        -0.0749
      6 C6         -0.0689    0.0374    0.0085 C.ar      1 <0>        -0.1113
      7 C7         -1.3300   -0.7344   -0.0276 C.2       1 <0>         0.3860
      8 N1         -2.3188   -0.3298   -0.7691 N.2       1 <0>        -0.3178
      9 O1         -2.1438    0.7691   -1.6447 O.3       1 <0>        -0.4004
     10 N2         -1.4582   -1.8915    0.7306 N.am      1 <0>        -0.6449
     11 C8         -2.6075   -2.5948    0.6977 C.2       1 <0>         0.6956
     12 O2         -3.5319   -2.2166    0.0045 O.2       1 <0>        -0.5084
     13 N3         -2.7319   -3.7173    1.4332 N.am      1 <0>        -0.6791
     14 C9         -3.9565   -4.3942    1.4754 C.ar      1 <0>         0.1789
     15 C10        -4.3710   -5.0093    2.6496 C.ar      1 <0>        -0.1275
     16 C11        -5.5794   -5.6767    2.6894 C.ar      1 <0>        -0.0779
     17 C12        -6.3777   -5.7333    1.5605 C.ar      1 <0>        -0.0467
     18 C13        -5.9670   -5.1214    0.3881 C.ar      1 <0>        -0.0115
     19 C14        -4.7610   -4.4469    0.3454 C.ar      1 <0>        -0.1008
     20 Cl1        -6.9706   -5.1948   -1.0265 Cl        1 <0>        -0.0398
     21 Cl2        -7.8960   -6.5732    1.6140 Cl        1 <0>        -0.0463
     22 N4          3.4849    2.2122    0.1107 N.am      1 <0>        -0.6717
     23 C15         3.4876    3.4774    0.5749 C.2       1 <0>         0.5441
     24 O3          2.4773    3.9512    1.0500 O.2       1 <0>        -0.5135
     25 C16         4.7461    4.3035    0.5037 C.3       1 <0>        -0.2004
     26 C17         5.4389    4.6505    1.8230 C.3       1 <0>        -0.1502
     27 C18         4.6848    5.7324    1.0472 C.3       1 <0>        -0.1438
     28 H1         -1.0214    1.9215   -0.3999 H         1 <0>         0.1448
     29 H2          1.0774    3.1992   -0.3425 H         1 <0>         0.1404
     30 H3          3.2509   -0.3916    0.4874 H         1 <0>         0.1331
     31 H4          1.1578   -1.6784    0.4273 H         1 <0>         0.1293
     32 H5         -2.9339    0.9958   -2.1541 H         1 <0>         0.4048
     33 H6         -0.7207   -2.1932    1.2836 H         1 <0>         0.4194
     34 H7         -1.9730   -4.0560    1.9333 H         1 <0>         0.4134
     35 H8         -3.7485   -4.9660    3.5311 H         1 <0>         0.1436
     36 H9         -5.9015   -6.1553    3.6024 H         1 <0>         0.1491
     37 H10        -4.4429   -3.9656   -0.5676 H         1 <0>         0.1610
     38 H11         4.3101    1.8077   -0.1998 H         1 <0>         0.4147
     39 H12         5.3789    4.1221   -0.3650 H         1 <0>         0.1292
     40 H13         4.9845    4.2814    2.7424 H         1 <0>         0.1010
     41 H14         6.5279    4.6974    1.8224 H         1 <0>         0.1084
     42 H15         5.2777    6.4910    0.5362 H         1 <0>         0.1074
     43 H16         3.7344    6.0750    1.4562 H         1 <0>         0.1099
@<TRIPOS>BOND
     1    1    6 ar
     2    1    2 ar
     3    1   28 1
     4    2    3 ar
     5    2   29 1
     6    3    4 ar
     7    3   22 1
     8    4    5 ar
     9    4   30 1
    10    5    6 ar
    11    5   31 1
    12    6    7 1
    13    7    8 2
    14    7   10 1
    15    8    9 1
    16    9   32 1
    17   10   11 am
    18   10   33 1
    19   11   12 2
    20   11   13 am
    21   13   14 1
    22   13   34 1
    23   14   19 ar
    24   14   15 ar
    25   15   16 ar
    26   15   35 1
    27   16   17 ar
    28   16   36 1
    29   17   18 ar
    30   17   21 1
    31   18   19 ar
    32   18   20 1
    33   19   37 1
    34   22   23 am
    35   22   38 1
    36   23   24 2
    37   23   25 1
    38   25   27 1
    39   25   26 1
    40   25   39 1
    41   26   27 1
    42   26   40 1
    43   26   41 1
    44   27   42 1
    45   27   43 1
@<TRIPOS>MOLECULE
ZINC01080844
   48    51     0     0     0
SMALL
USER_CHARGES
4-(2,4-dihydroxyphenyl)-4-(4-methoxyphenyl)-6-(2-thienyl)hexahydropyrimidine-2-thione
@<TRIPOS>ATOM
      1 C1         -4.5080   -2.0229   -7.5783 C.3       1 <0>         0.0259
      2 O1         -5.3711   -2.1661   -6.4484 O.3       1 <0>        -0.3155
      3 C2         -4.7915   -2.1237   -5.2199 C.ar      1 <0>         0.1394
      4 C3         -5.5702   -2.2562   -4.0794 C.ar      1 <0>        -0.1482
      5 C4         -4.9787   -2.2122   -2.8318 C.ar      1 <0>        -0.0669
      6 C5         -3.6119   -2.0358   -2.7192 C.ar      1 <0>        -0.1309
      7 C6         -2.8345   -1.8979   -3.8542 C.ar      1 <0>        -0.0329
      8 C7         -3.4204   -1.9473   -5.1043 C.ar      1 <0>        -0.2073
      9 C8         -2.9693   -1.9878   -1.3569 C.3       1 <0>         0.2584
     10 C9         -1.7252   -1.0945   -1.4087 C.3       1 <0>        -0.1354
     11 C10        -1.1555   -0.9689    0.0083 C.3       1 <0>         0.2167
     12 H1         -0.8139   -1.9455    0.3515 H         1 <0>         0.1069
     13 N1         -2.2007   -0.4732    0.9053 N.pl3     1 <0>        -0.6684
     14 C11        -3.4976   -0.7280    0.6725 C.2       1 <0>         0.5889
     15 S1         -4.6634   -0.1271    1.7729 S.2       1 <0>        -0.6444
     16 N2         -3.9167   -1.4360   -0.3869 N.pl3     1 <0>        -0.6644
     17 C12         0.0021   -0.0041    0.0020 C.2       1 <0>        -0.1882
     18 C13         1.3319   -0.2664   -0.0121 C.2       1 <0>        -0.1250
     19 C14         2.2234    0.7899   -0.0149 C.2       1 <0>        -0.1642
     20 C15         1.7416    2.0568   -0.0035 C.2       1 <0>        -0.1586
     21 S2         -0.0221    1.7810    0.0118 S.3       1 <0>         0.0738
     22 C16        -2.5728   -3.3799   -0.9377 C.ar      1 <0>        -0.1375
     23 C17        -3.1021   -3.9314    0.2136 C.ar      1 <0>        -0.0754
     24 C18        -2.7442   -5.2092    0.5980 C.ar      1 <0>        -0.1464
     25 C19        -1.8436   -5.9383   -0.1660 C.ar      1 <0>         0.1320
     26 C20        -1.3072   -5.3853   -1.3183 C.ar      1 <0>        -0.1687
     27 C21        -1.6720   -4.1047   -1.7048 C.ar      1 <0>         0.1432
     28 O2         -1.1474   -3.5597   -2.8338 O.3       1 <0>        -0.4835
     29 O3         -1.4883   -7.1934    0.2151 O.3       1 <0>        -0.4949
     30 H2         -3.7693   -2.8244   -7.5751 H         1 <0>         0.0573
     31 H3         -5.0967   -2.0750   -8.4941 H         1 <0>         0.1024
     32 H4         -3.9997   -1.0601   -7.5274 H         1 <0>         0.0570
     33 H5         -6.6378   -2.3939   -4.1668 H         1 <0>         0.1354
     34 H6         -5.5843   -2.3153   -1.9435 H         1 <0>         0.1250
     35 H7         -1.7678   -1.7555   -3.7635 H         1 <0>         0.1325
     36 H8         -2.8120   -1.8443   -5.9907 H         1 <0>         0.1316
     37 H9         -1.9985   -0.1077   -1.7822 H         1 <0>         0.0979
     38 H10        -0.9782   -1.5405   -2.0654 H         1 <0>         0.1087
     39 H11        -1.9507    0.0505    1.6826 H         1 <0>         0.4344
     40 H12        -4.8668   -1.5851   -0.5130 H         1 <0>         0.4327
     41 H13         1.6894   -1.2854   -0.0213 H         1 <0>         0.1357
     42 H14         3.2880    0.6085   -0.0257 H         1 <0>         0.1390
     43 H15         2.2840    2.9908   -0.0040 H         1 <0>         0.1901
     44 H16        -3.8000   -3.3641    0.8116 H         1 <0>         0.1342
     45 H17        -3.1624   -5.6396    1.4959 H         1 <0>         0.1363
     46 H18        -0.6065   -5.9512   -1.9143 H         1 <0>         0.1398
     47 H19        -0.3266   -3.0694   -2.6892 H         1 <0>         0.3856
     48 H20        -0.7162   -7.2241    0.7965 H         1 <0>         0.3957
@<TRIPOS>BOND
     1    1    2 1
     2    1   30 1
     3    1   31 1
     4    1   32 1
     5    2    3 1
     6    3    8 ar
     7    3    4 ar
     8    4    5 ar
     9    4   33 1
    10    5    6 ar
    11    5   34 1
    12    6    7 ar
    13    6    9 1
    14    7    8 ar
    15    7   35 1
    16    8   36 1
    17    9   16 1
    18    9   10 1
    19    9   22 1
    20   10   11 1
    21   10   37 1
    22   10   38 1
    23   11   12 1
    24   11   13 1
    25   11   17 1
    26   13   14 1
    27   13   39 1
    28   14   15 2
    29   14   16 1
    30   16   40 1
    31   17   21 1
    32   17   18 2
    33   18   19 1
    34   18   41 1
    35   19   20 2
    36   19   42 1
    37   20   21 1
    38   20   43 1
    39   22   27 ar
    40   22   23 ar
    41   23   24 ar
    42   23   44 1
    43   24   25 ar
    44   24   45 1
    45   25   26 ar
    46   25   29 1
    47   26   27 ar
    48   26   46 1
    49   27   28 1
    50   28   47 1
    51   29   48 1
@<TRIPOS>MOLECULE
ZINC12104600
   56    59     0     0     0
SMALL
USER_CHARGES
2-[[2-[[5-(2-cyclopentylethyl)-4H-1,2,4-triazol-3-yl]sulfanyl]acetyl]amino]-4,5,6,7-tetrahydrobenzothiophene-3-carboxamide
@<TRIPOS>ATOM
      1 C1         -2.6282    2.3209   -8.1108 C.3       1 <0>        -0.1199
      2 C2         -3.1349    3.6849   -7.6336 C.3       1 <0>        -0.1143
      3 C3         -3.6118    3.5545   -6.1797 C.3       1 <0>        -0.0368
      4 C4         -2.5580    2.8295   -5.4009 C.2       1 <0>        -0.2042
      5 C5         -1.5231    2.1175   -5.8975 C.2       1 <0>        -0.0667
      6 C6         -0.6472    1.5227   -4.9024 C.2       1 <0>        -0.2210
      7 C7         -0.9591    1.7317   -3.5664 C.2       1 <0>         0.0673
      8 S1         -2.3856    2.7121   -3.6428 S.3       1 <0>         0.2331
      9 N1         -0.2884    1.2723   -2.4431 N.am      1 <0>        -0.6125
     10 C8         -0.7416    1.5850   -1.2129 C.2       1 <0>         0.5312
     11 O1         -1.7359    2.2682   -1.0884 O.2       1 <0>        -0.4833
     12 C9         -0.0127    1.0858    0.0080 C.3       1 <0>        -0.1457
     13 S2         -0.8599    1.6695    1.4972 S.3       1 <0>         0.0931
     14 C10         0.1742    0.9607    2.7352 C.2       1 <0>         0.1376
     15 N2          0.0153    1.0714    4.0868 N.pl3     1 <0>        -0.5679
     16 H1         -0.6835    1.5526    4.5569 H         1 <0>         0.4331
     17 C11         1.0460    0.3631    4.6402 C.2       1 <0>         0.1989
     18 N3          1.7525   -0.1239    3.6596 N.2       1 <0>        -0.2771
     19 N4          1.2400    0.2213    2.5327 N.2       1 <0>        -0.2893
     20 C12         1.3149    0.1797    6.1116 C.3       1 <0>        -0.0338
     21 C13         1.4018   -1.3139    6.4320 C.3       1 <0>        -0.1048
     22 C14         1.6747   -1.5000    7.9259 C.3       1 <0>        -0.0917
     23 C15         3.0913   -0.9959    8.2711 C.3       1 <0>        -0.1238
     24 C16         3.6005   -1.9956    9.3390 C.3       1 <0>        -0.1267
     25 C17         3.0377   -3.3484    8.8367 C.3       1 <0>        -0.1264
     26 C18         1.6407   -2.9958    8.2855 C.3       1 <0>        -0.1218
     27 C19         0.5206    0.7279   -5.2952 C.2       1 <0>         0.5832
     28 O2          0.4116   -0.4729   -5.4610 O.2       1 <0>        -0.5317
     29 N5          1.7148    1.3270   -5.4726 N.am      1 <0>        -0.8472
     30 C20        -1.3183    1.9750   -7.4006 C.3       1 <0>        -0.0615
     31 H2         -3.3742    1.5586   -7.8861 H         1 <0>         0.0679
     32 H3         -2.4575    2.3542   -9.1869 H         1 <0>         0.0709
     33 H4         -3.9647    4.0070   -8.2628 H         1 <0>         0.0745
     34 H5         -2.3287    4.4164   -7.6894 H         1 <0>         0.0684
     35 H6         -4.5444    2.9912   -6.1483 H         1 <0>         0.0837
     36 H7         -3.7669    4.5456   -5.7533 H         1 <0>         0.0821
     37 H8          0.5068    0.7259   -2.5426 H         1 <0>         0.4236
     38 H9          0.0021   -0.0041    0.0020 H         1 <0>         0.1373
     39 H10         1.0099    1.4631    0.0003 H         1 <0>         0.1369
     40 H11         2.2569    0.6625    6.3718 H         1 <0>         0.1002
     41 H12         0.5055    0.6283    6.6876 H         1 <0>         0.0840
     42 H13         0.4598   -1.7966    6.1718 H         1 <0>         0.0641
     43 H14         2.2112   -1.7625    5.8561 H         1 <0>         0.0799
     44 H15         0.9319   -0.9582    8.5113 H         1 <0>         0.0725
     45 H16         3.7308   -1.0216    7.3888 H         1 <0>         0.0705
     46 H17         3.0476    0.0125    8.6825 H         1 <0>         0.0644
     47 H18         3.1969   -1.7501   10.3214 H         1 <0>         0.0656
     48 H19         4.6900   -2.0149    9.3616 H         1 <0>         0.0656
     49 H20         2.9549   -4.0568    9.6610 H         1 <0>         0.0637
     50 H21         3.6686   -3.7540    8.0458 H         1 <0>         0.0656
     51 H22         0.8819   -3.1797    9.0461 H         1 <0>         0.0632
     52 H23         1.4297   -3.5890    7.3958 H         1 <0>         0.0654
     53 H24         1.8017    2.2840   -5.3404 H         1 <0>         0.4037
     54 H25         2.4874    0.8012   -5.7325 H         1 <0>         0.4041
     55 H26        -1.0353    0.9488   -7.6352 H         1 <0>         0.0757
     56 H27        -0.5330    2.6551   -7.7307 H         1 <0>         0.0772
@<TRIPOS>BOND
     1    1   30 1
     2    1    2 1
     3    1   31 1
     4    1   32 1
     5    2    3 1
     6    2   33 1
     7    2   34 1
     8    3    4 1
     9    3   35 1
    10    3   36 1
    11    4    8 1
    12    4    5 2
    13    5    6 1
    14    5   30 1
    15    6    7 2
    16    6   27 1
    17    7    8 1
    18    7    9 1
    19    9   10 am
    20    9   37 1
    21   10   11 2
    22   10   12 1
    23   12   13 1
    24   12   38 1
    25   12   39 1
    26   13   14 1
    27   14   19 2
    28   14   15 1
    29   15   16 1
    30   15   17 1
    31   17   18 2
    32   17   20 1
    33   18   19 1
    34   20   21 1
    35   20   40 1
    36   20   41 1
    37   21   22 1
    38   21   42 1
    39   21   43 1
    40   22   26 1
    41   22   23 1
    42   22   44 1
    43   23   24 1
    44   23   45 1
    45   23   46 1
    46   24   25 1
    47   24   47 1
    48   24   48 1
    49   25   26 1
    50   25   49 1
    51   25   50 1
    52   26   51 1
    53   26   52 1
    54   27   28 2
    55   27   29 am
    56   29   53 1
    57   29   54 1
    58   30   55 1
    59   30   56 1
@<TRIPOS>MOLECULE
ZINC16477938
   53    56     0     0     0
SMALL
USER_CHARGES
2-[2-[(4R)-5-benzoyl-6-phenyl-2-thioxo-3,4-dihydro-1H-pyrimidin-4-yl]phenoxy]acetamide
@<TRIPOS>ATOM
      1 C1         -3.9337   -3.9637   -5.7276 C.ar      1 <0>        -0.0954
      2 C2         -2.9446   -3.8806   -4.7633 C.ar      1 <0>        -0.1132
      3 C3         -3.2297   -3.3513   -3.5221 C.ar      1 <0>        -0.0859
      4 C4         -4.5208   -2.8984   -3.2393 C.ar      1 <0>        -0.0832
      5 C5         -5.5157   -2.9907   -4.2158 C.ar      1 <0>        -0.0910
      6 C6         -5.2147   -3.5166   -5.4547 C.ar      1 <0>        -0.1154
      7 C7         -4.8336   -2.3306   -1.9133 C.2       1 <0>         0.1958
      8 C8         -4.0236   -1.3649   -1.3825 C.2       1 <0>        -0.2251
      9 C9         -4.3873   -0.8144   -0.0182 C.3       1 <0>         0.2287
     10 H1         -3.5415   -0.9832    0.6483 H         1 <0>         0.1114
     11 N1         -5.5899   -1.3671    0.6262 N.pl3     1 <0>        -0.6483
     12 C10        -6.2915   -2.3177   -0.0202 C.2       1 <0>         0.5635
     13 S1         -7.6901   -2.9623    0.7278 S.2       1 <0>        -0.6047
     14 N2         -5.9352   -2.7774   -1.2260 N.pl3     1 <0>        -0.5968
     15 C11        -4.5761    0.6746   -0.1538 C.ar      1 <0>        -0.1444
     16 C12        -5.8466    1.2014   -0.2847 C.ar      1 <0>        -0.0657
     17 C13        -6.0201    2.5667   -0.4144 C.ar      1 <0>        -0.1479
     18 C14        -4.9234    3.4091   -0.4085 C.ar      1 <0>        -0.0665
     19 C15        -3.6515    2.8878   -0.2730 C.ar      1 <0>        -0.2032
     20 C16        -3.4748    1.5178   -0.1423 C.ar      1 <0>         0.1454
     21 O1         -2.2243    1.0025   -0.0088 O.3       1 <0>        -0.2825
     22 C17        -1.1312    1.9170   -0.1134 C.3       1 <0>         0.0398
     23 C18         0.1679    1.1627    0.0063 C.2       1 <0>         0.5139
     24 O2          0.1610   -0.0470    0.0927 O.2       1 <0>        -0.4944
     25 N3          1.3377    1.8320    0.0116 N.am      1 <0>        -0.8537
     26 C19        -2.8916   -0.8993   -2.0792 C.2       1 <0>         0.4642
     27 O3         -1.7783   -1.2689   -1.7490 O.2       1 <0>        -0.4031
     28 C20        -3.0541    0.0390   -3.2124 C.ar      1 <0>        -0.1494
     29 C21        -4.3178    0.5351   -3.5357 C.ar      1 <0>        -0.0627
     30 C22        -4.4616    1.4141   -4.5892 C.ar      1 <0>        -0.1298
     31 C23        -3.3581    1.7947   -5.3321 C.ar      1 <0>        -0.0890
     32 C24        -2.1034    1.3016   -5.0206 C.ar      1 <0>        -0.1323
     33 C25        -1.9453    0.4267   -3.9656 C.ar      1 <0>        -0.0650
     34 H2         -3.7048   -4.3791   -6.6978 H         1 <0>         0.1294
     35 H3         -1.9469   -4.2308   -4.9834 H         1 <0>         0.1314
     36 H4         -2.4569   -3.2873   -2.7703 H         1 <0>         0.1327
     37 H5         -6.5171   -2.6469   -4.0024 H         1 <0>         0.1278
     38 H6         -5.9816   -3.5842   -6.2121 H         1 <0>         0.1316
     39 H7         -5.8716   -1.0525    1.4995 H         1 <0>         0.4477
     40 H8         -6.4848   -3.4634   -1.6362 H         1 <0>         0.4408
     41 H9         -6.7047    0.5456   -0.2900 H         1 <0>         0.1279
     42 H10        -7.0138    2.9762   -0.5208 H         1 <0>         0.1290
     43 H11        -5.0615    4.4754   -0.5103 H         1 <0>         0.1293
     44 H12        -2.7953    3.5461   -0.2685 H         1 <0>         0.1309
     45 H13        -1.1976    2.6554    0.6857 H         1 <0>         0.0935
     46 H14        -1.1708    2.4217   -1.0787 H         1 <0>         0.0929
     47 H15         2.1692    1.3542    0.1572 H         1 <0>         0.4099
     48 H16         1.3481    2.7916   -0.1300 H         1 <0>         0.4013
     49 H17        -5.1805    0.2353   -2.9593 H         1 <0>         0.1208
     50 H18        -5.4383    1.8025   -4.8374 H         1 <0>         0.1259
     51 H19        -3.4766    2.4798   -6.1585 H         1 <0>         0.1258
     52 H20        -1.2460    1.6024   -5.6043 H         1 <0>         0.1273
     53 H21        -0.9653    0.0431   -3.7230 H         1 <0>         0.1300
@<TRIPOS>BOND
     1    1    6 ar
     2    1    2 ar
     3    1   34 1
     4    2    3 ar
     5    2   35 1
     6    3    4 ar
     7    3   36 1
     8    4    5 ar
     9    4    7 1
    10    5    6 ar
    11    5   37 1
    12    6   38 1
    13    7   14 1
    14    7    8 2
    15    8    9 1
    16    8   26 1
    17    9   10 1
    18    9   11 1
    19    9   15 1
    20   11   12 1
    21   11   39 1
    22   12   13 2
    23   12   14 1
    24   14   40 1
    25   15   20 ar
    26   15   16 ar
    27   16   17 ar
    28   16   41 1
    29   17   18 ar
    30   17   42 1
    31   18   19 ar
    32   18   43 1
    33   19   20 ar
    34   19   44 1
    35   20   21 1
    36   21   22 1
    37   22   23 1
    38   22   45 1
    39   22   46 1
    40   23   24 2
    41   23   25 am
    42   25   47 1
    43   25   48 1
    44   26   27 2
    45   26   28 1
    46   28   33 ar
    47   28   29 ar
    48   29   30 ar
    49   29   49 1
    50   30   31 ar
    51   30   50 1
    52   31   32 ar
    53   31   51 1
    54   32   33 ar
    55   32   52 1
    56   33   53 1
@<TRIPOS>MOLECULE
ZINC37637854
   38    39     0     0     0
SMALL
USER_CHARGES

@<TRIPOS>ATOM
      1 C1          0.4014   -1.0052    1.6062 C.3       1 <0>         0.0243
      2 O1          0.2827   -0.2922    0.3735 O.3       1 <0>        -0.3142
      3 C2          0.8729   -0.8461   -0.7193 C.ar      1 <0>         0.1424
      4 C3          1.5465   -2.0534   -0.6062 C.ar      1 <0>        -0.1982
      5 C4          2.1461   -2.6164   -1.7155 C.ar      1 <0>        -0.0297
      6 C5          2.0745   -1.9738   -2.9442 C.ar      1 <0>         0.0715
      7 C6          1.4000   -0.7653   -3.0566 C.ar      1 <0>        -0.0744
      8 C7          0.7961   -0.2063   -1.9477 C.ar      1 <0>        -0.1451
      9 N1          2.6829   -2.5442   -4.0699 N.pl3     1 <0>        -0.6156
     10 C8          2.6019   -3.8732   -4.2789 C.2       1 <0>         0.5524
     11 S1          1.6336   -4.8435   -3.2535 S.2       1 <0>        -0.5386
     12 N2          3.2834   -4.4382   -5.2952 N.pl3     1 <0>        -0.4996
     13 N3          4.0759   -3.6441   -6.1343 N.pl3     1 <0>        -0.4952
     14 C9          4.7573   -4.2092   -7.1506 C.2       1 <0>         0.5524
     15 S2          5.7257   -3.2388   -8.1760 S.2       1 <0>        -0.5306
     16 N4          4.6764   -5.5382   -7.3596 N.pl3     1 <0>        -0.6245
     17 C10         5.4755   -6.1428   -8.3362 C.ar      1 <0>         0.1328
     18 C11         6.8014   -5.7578   -8.4864 C.ar      1 <0>        -0.0689
     19 C12         7.5880   -6.3565   -9.4509 C.ar      1 <0>        -0.0790
     20 C13         7.0562   -7.3391  -10.2670 C.ar      1 <0>        -0.0818
     21 C14         5.7356   -7.7247  -10.1196 C.ar      1 <0>        -0.0817
     22 C15         4.9459   -7.1330   -9.1533 C.ar      1 <0>        -0.1124
     23 Br1         8.1362   -8.1562  -11.5869 Br        1 <0>        -0.0412
     24 H1         -0.0479   -1.9925    1.4996 H         1 <0>         0.0593
     25 H2          1.4550   -1.1114    1.8646 H         1 <0>         0.0581
     26 H3         -0.1125   -0.4554    2.3948 H         1 <0>         0.1029
     27 H4          1.6024   -2.5530    0.3497 H         1 <0>         0.1368
     28 H5          2.6708   -3.5562   -1.6272 H         1 <0>         0.1462
     29 H6          1.3439   -0.2649   -4.0121 H         1 <0>         0.1341
     30 H7          0.2677    0.7315   -2.0359 H         1 <0>         0.1398
     31 H8          3.1623   -1.9826   -4.6989 H         1 <0>         0.4030
     32 H9          3.2252   -5.3947   -5.4456 H         1 <0>         0.4476
     33 H10         4.1341   -2.6876   -5.9839 H         1 <0>         0.4487
     34 H11         4.0642   -6.0756   -6.8330 H         1 <0>         0.4056
     35 H12         7.2168   -4.9906   -7.8499 H         1 <0>         0.1524
     36 H13         8.6190   -6.0572   -9.5683 H         1 <0>         0.1420
     37 H14         5.3231   -8.4919  -10.7580 H         1 <0>         0.1417
     38 H15         3.9164   -7.4375   -9.0357 H         1 <0>         0.1366
@<TRIPOS>BOND
     1    1    2 1
     2    1   24 1
     3    1   25 1
     4    1   26 1
     5    2    3 1
     6    3    8 ar
     7    3    4 ar
     8    4    5 ar
     9    4   27 1
    10    5    6 ar
    11    5   28 1
    12    6    7 ar
    13    6    9 1
    14    7    8 ar
    15    7   29 1
    16    8   30 1
    17    9   10 1
    18    9   31 1
    19   10   11 2
    20   10   12 1
    21   12   13 1
    22   12   32 1
    23   13   14 1
    24   13   33 1
    25   14   15 2
    26   14   16 1
    27   16   17 1
    28   16   34 1
    29   17   22 ar
    30   17   18 ar
    31   18   19 ar
    32   18   35 1
    33   19   20 ar
    34   19   36 1
    35   20   21 ar
    36   20   23 1
    37   21   22 ar
    38   21   37 1
    39   22   38 1
@<TRIPOS>MOLECULE
ZINC08053751
   55    59     0     0     0
SMALL
USER_CHARGES

@<TRIPOS>ATOM
      1 C1         -0.0189    1.5406    0.0105 C.3       1 <0>        -0.1194
      2 C2          1.4863    1.8760   -0.0021 C.3       1 <0>        -0.0596
      3 C3          2.1765    0.6707    0.6331 C.2       1 <0>        -0.1104
      4 C4          1.3242   -0.3696    0.6206 C.2       1 <0>        -0.2727
      5 S1          2.2282   -1.6986    1.3732 S.3       1 <0>         0.3959
      6 C5          3.6764   -0.9171    1.6970 C.2       1 <0>        -0.0183
      7 C6          3.4770    0.3690    1.2294 C.2       1 <0>        -0.1875
      8 C7          4.5267    1.3875    1.3266 C.2       1 <0>         0.5791
      9 O1          4.5957    2.0981    2.3123 O.2       1 <0>        -0.5355
     10 N1          5.4153    1.5371    0.3244 N.am      1 <0>        -0.8492
     11 N2          4.8112   -1.4396    2.2964 N.pl3     1 <0>        -0.5530
     12 C8          4.8306   -2.7268    2.6954 C.2       1 <0>         0.4759
     13 S2          3.4533   -3.7163    2.4617 S.2       1 <0>        -0.3703
     14 N3          5.9344   -3.2349    3.2784 N.am      1 <0>        -0.6377
     15 C9          5.9539   -4.5221    3.6774 C.2       1 <0>         0.4886
     16 O2          4.9784   -5.2229    3.5119 O.2       1 <0>        -0.3959
     17 C10         7.1881   -5.0904    4.3292 C.3       1 <0>        -0.1278
     18 C11         6.9478   -6.5594    4.6827 C.3       1 <0>        -0.0359
     19 C12         5.7662   -6.6648    5.6490 C.3       1 <0>        -0.1154
     20 C13         5.5258   -8.1339    6.0024 C.3       1 <0>        -0.0826
     21 C14         6.7789   -8.7108    6.6642 C.3       1 <0>        -0.1100
     22 C15         7.9605   -8.6054    5.6980 C.3       1 <0>        -0.0839
     23 C16         8.2008   -7.1363    5.3445 C.3       1 <0>        -0.1015
     24 C17         7.6487   -9.3922    4.4234 C.3       1 <0>        -0.1098
     25 C18         6.3956   -8.8154    3.7616 C.3       1 <0>        -0.0825
     26 C19         5.2141   -8.9207    4.7278 C.3       1 <0>        -0.1072
     27 C20         6.6360   -7.3463    3.4081 C.3       1 <0>        -0.1150
     28 C21         0.0021   -0.0041    0.0020 C.3       1 <0>        -0.0369
     29 H1         -0.4953    1.9193    0.9148 H         1 <0>         0.0740
     30 H2         -0.5124    1.9289   -0.8804 H         1 <0>         0.0795
     31 H3          1.8338    2.0134   -1.0260 H         1 <0>         0.0750
     32 H4          1.6779    2.7736    0.5859 H         1 <0>         0.0680
     33 H5          5.3602    0.9708   -0.4612 H         1 <0>         0.4038
     34 H6          6.1099    2.2111    0.3887 H         1 <0>         0.4021
     35 H7          5.5916   -0.8789    2.4288 H         1 <0>         0.4122
     36 H8          6.7148   -2.6743    3.4108 H         1 <0>         0.4162
     37 H9          8.0299   -5.0153    3.6408 H         1 <0>         0.1022
     38 H10         7.4102   -4.5298    5.2373 H         1 <0>         0.1024
     39 H11         5.9883   -6.1043    6.5570 H         1 <0>         0.0544
     40 H12         4.8735   -6.2538    5.1775 H         1 <0>         0.0895
     41 H13         4.6841   -8.2090    6.6908 H         1 <0>         0.0683
     42 H14         7.0010   -8.1502    7.5723 H         1 <0>         0.0598
     43 H15         6.6077   -9.7574    6.9161 H         1 <0>         0.0611
     44 H16         8.8531   -9.0164    6.1695 H         1 <0>         0.0693
     45 H17         9.0426   -7.0613    4.6561 H         1 <0>         0.0628
     46 H18         8.4229   -6.5758    6.2526 H         1 <0>         0.0629
     47 H19         8.4905   -9.3172    3.7350 H         1 <0>         0.0597
     48 H20         7.4775  -10.4388    4.6752 H         1 <0>         0.0611
     49 H21         6.1735   -9.3759    2.8535 H         1 <0>         0.0682
     50 H22         5.0428   -9.9673    4.9796 H         1 <0>         0.0585
     51 H23         4.3214   -8.5097    4.2563 H         1 <0>         0.0657
     52 H24         5.7433   -6.9353    2.9366 H         1 <0>         0.0894
     53 H25         7.4778   -7.2712    2.7197 H         1 <0>         0.0541
     54 H26        -0.8193   -0.3986    0.6001 H         1 <0>         0.0768
     55 H27        -0.0562   -0.3793   -1.0197 H         1 <0>         0.0817
@<TRIPOS>BOND
     1    1   28 1
     2    1    2 1
     3    1   29 1
     4    1   30 1
     5    2    3 1
     6    2   31 1
     7    2   32 1
     8    3    7 1
     9    3    4 2
    10    4    5 1
    11    4   28 1
    12    5    6 1
    13    6    7 2
    14    6   11 1
    15    7    8 1
    16    8    9 2
    17    8   10 am
    18   10   33 1
    19   10   34 1
    20   11   12 1
    21   11   35 1
    22   12   13 2
    23   12   14 1
    24   14   15 am
    25   14   36 1
    26   15   16 2
    27   15   17 1
    28   17   18 1
    29   17   37 1
    30   17   38 1
    31   18   23 1
    32   18   27 1
    33   18   19 1
    34   19   20 1
    35   19   39 1
    36   19   40 1
    37   20   26 1
    38   20   21 1
    39   20   41 1
    40   21   22 1
    41   21   42 1
    42   21   43 1
    43   22   23 1
    44   22   24 1
    45   22   44 1
    46   23   45 1
    47   23   46 1
    48   24   25 1
    49   24   47 1
    50   24   48 1
    51   25   26 1
    52   25   27 1
    53   25   49 1
    54   26   50 1
    55   26   51 1
    56   27   52 1
    57   27   53 1
    58   28   54 1
    59   28   55 1
@<TRIPOS>MOLECULE
ZINC02502649
   46    49     0     0     0
SMALL
USER_CHARGES
2-amino-4-[2-[(4-fluorophenyl)methoxy]phenyl]-7-hydroxy-4H-chromene-3-carbonitrile
@<TRIPOS>ATOM
      1 C1         -1.2370    3.1334    0.0297 C.ar      1 <0>        -0.1538
      2 C2         -1.2177    1.7507    0.0173 C.ar      1 <0>        -0.0784
      3 C3         -0.0126    1.0758    0.0080 C.ar      1 <0>        -0.2074
      4 C4          1.1791    1.7865    0.0004 C.ar      1 <0>         0.1365
      5 C5          1.1570    3.1734    0.0076 C.ar      1 <0>        -0.1049
      6 C6         -0.0511    3.8437    0.0222 C.ar      1 <0>        -0.0646
      7 C7          2.4494    3.9483   -0.0011 C.3       1 <0>         0.0904
      8 H1          3.2879    3.2519   -0.0072 H         1 <0>         0.1060
      9 C8          2.5239    4.8079    1.2330 C.ar      1 <0>        -0.1260
     10 C9          2.8343    4.2264    2.4496 C.ar      1 <0>        -0.0582
     11 C10         2.9077    4.9991    3.5916 C.ar      1 <0>        -0.1525
     12 C11         2.6691    6.3646    3.5216 C.ar      1 <0>         0.1374
     13 C12         2.3573    6.9497    2.3053 C.ar      1 <0>        -0.1514
     14 C13         2.2841    6.1710    1.1575 C.ar      1 <0>         0.1311
     15 O1          1.9785    6.7590   -0.0254 O.3       1 <0>        -0.2442
     16 C14         2.2738    6.1369   -1.1789 C.2       1 <0>         0.4374
     17 C15         2.5083    4.8044   -1.2348 C.2       1 <0>        -0.2739
     18 C16         2.8187    4.1989   -2.4948 C.1       1 <0>         0.2746
     19 N1          3.0650    3.7185   -3.4944 N.1       1 <0>        -0.4459
     20 N2          2.3392    6.8737   -2.3352 N.pl3     1 <0>        -0.8311
     21 O2          2.7416    7.1266    4.6446 O.3       1 <0>        -0.4924
     22 O3          2.3661    1.1248   -0.0145 O.3       1 <0>        -0.3065
     23 C17         2.3128   -0.3032   -0.0216 C.3       1 <0>         0.1032
     24 C18         3.7138   -0.8582   -0.0379 C.ar      1 <0>        -0.1084
     25 C19         4.3423   -1.1114   -1.2429 C.ar      1 <0>        -0.0637
     26 C20         5.6289   -1.6158   -1.2591 C.ar      1 <0>        -0.1561
     27 C21         6.2844   -1.8774   -0.0679 C.ar      1 <0>         0.1105
     28 C22         5.6519   -1.6282    1.1383 C.ar      1 <0>        -0.1568
     29 C23         4.3673   -1.1189    1.1520 C.ar      1 <0>        -0.0647
     30 F1          7.5404   -2.3749   -0.0826 F         1 <0>        -0.1365
     31 H2         -2.1803    3.6592    0.0412 H         1 <0>         0.1239
     32 H3         -2.1455    1.1980    0.0187 H         1 <0>         0.1250
     33 H4          0.0021   -0.0041    0.0020 H         1 <0>         0.1282
     34 H5         -0.0689    4.9236    0.0282 H         1 <0>         0.1220
     35 H6          3.0203    3.1640    2.5061 H         1 <0>         0.1383
     36 H7          3.1511    4.5412    4.5389 H         1 <0>         0.1377
     37 H8          2.1716    8.0121    2.2494 H         1 <0>         0.1438
     38 H9          2.1733    7.8291   -2.3115 H         1 <0>         0.4112
     39 H10         2.5513    6.4390   -3.1760 H         1 <0>         0.4255
     40 H11         3.6211    7.4893    4.8176 H         1 <0>         0.3966
     41 H12         1.7942   -0.6519    0.8715 H         1 <0>         0.0751
     42 H13         1.7773   -0.6424   -0.9084 H         1 <0>         0.0732
     43 H14         3.8293   -0.9112   -2.1719 H         1 <0>         0.1346
     44 H15         6.1213   -1.8098   -2.2006 H         1 <0>         0.1391
     45 H16         6.1621   -1.8322    2.0681 H         1 <0>         0.1396
     46 H17         3.8739   -0.9242    2.0928 H         1 <0>         0.1360
@<TRIPOS>BOND
     1    1    6 ar
     2    1    2 ar
     3    1   31 1
     4    2    3 ar
     5    2   32 1
     6    3    4 ar
     7    3   33 1
     8    4    5 ar
     9    4   22 1
    10    5    6 ar
    11    5    7 1
    12    6   34 1
    13    7    8 1
    14    7   17 1
    15    7    9 1
    16    9   14 ar
    17    9   10 ar
    18   10   11 ar
    19   10   35 1
    20   11   12 ar
    21   11   36 1
    22   12   13 ar
    23   12   21 1
    24   13   14 ar
    25   13   37 1
    26   14   15 1
    27   15   16 1
    28   16   17 2
    29   16   20 1
    30   17   18 1
    31   18   19 3
    32   20   38 1
    33   20   39 1
    34   21   40 1
    35   22   23 1
    36   23   24 1
    37   23   41 1
    38   23   42 1
    39   24   29 ar
    40   24   25 ar
    41   25   26 ar
    42   25   43 1
    43   26   27 ar
    44   26   44 1
    45   27   28 ar
    46   27   30 1
    47   28   29 ar
    48   28   45 1
    49   29   46 1
@<TRIPOS>MOLECULE
ZINC11027293
   46    48     0     0     0
SMALL
USER_CHARGES
4,5-dimethyl-2-(2-phenoxybenzoyl)amino-2,3-dihydrothiophene-3-carboxamide
@<TRIPOS>ATOM
      1 C1         -8.3762   -1.0208    1.5740 C.3       1 <0>        -0.1172
      2 C2         -7.2136   -0.7301    0.6603 C.2       1 <0>        -0.1658
      3 C3         -7.4265   -0.4401   -0.6085 C.2       1 <0>        -0.0634
      4 S1         -5.8168   -0.1504   -1.3199 S.3       1 <0>        -0.2007
      5 C4         -4.8472   -0.0161    0.2410 C.3       1 <0>         0.2111
      6 H1         -4.7178    1.0232    0.5431 H         1 <0>         0.1581
      7 C5         -5.8163   -0.7694    1.1901 C.3       1 <0>        -0.0918
      8 H2         -5.4957   -1.8072    1.2807 H         1 <0>         0.1237
      9 C6         -5.7828   -0.1212    2.5502 C.2       1 <0>         0.5288
     10 O1         -5.0663    0.8372    2.7477 O.2       1 <0>        -0.5170
     11 N1         -6.5490   -0.6067    3.5471 N.am      1 <0>        -0.8535
     12 N2         -3.5580   -0.7036    0.1335 N.am      1 <0>        -0.7012
     13 C7         -2.4107   -0.0026    0.2266 C.2       1 <0>         0.5605
     14 O2         -2.4428    1.1838    0.4909 O.2       1 <0>        -0.4848
     15 C8         -1.1157   -0.6748    0.0079 C.ar      1 <0>        -0.1498
     16 C9         -1.0741   -2.0379   -0.2955 C.ar      1 <0>        -0.0742
     17 C10         0.1386   -2.6599   -0.4982 C.ar      1 <0>        -0.1240
     18 C11         1.3184   -1.9399   -0.4022 C.ar      1 <0>        -0.0752
     19 C12         1.2916   -0.5911   -0.1091 C.ar      1 <0>        -0.1342
     20 C13         0.0800    0.0503    0.1037 C.ar      1 <0>         0.1483
     21 O3          0.0522    1.3741    0.3977 O.3       1 <0>        -0.2465
     22 C14         0.0321    1.7365    1.7072 C.ar      1 <0>         0.1469
     23 C15         0.1486    0.7713    2.6973 C.ar      1 <0>        -0.1999
     24 C16         0.1331    1.1430    4.0277 C.ar      1 <0>        -0.0825
     25 C17        -0.0090    2.4743    4.3732 C.ar      1 <0>        -0.1544
     26 C18        -0.1310    3.4374    3.3887 C.ar      1 <0>        -0.0808
     27 C19        -0.1108    3.0717    2.0567 C.ar      1 <0>        -0.1356
     28 C20        -8.7569   -0.3678   -1.3126 C.3       1 <0>        -0.0852
     29 H3         -9.3074   -0.9449    1.0126 H         1 <0>         0.0771
     30 H4         -8.2771   -2.0279    1.9790 H         1 <0>         0.0720
     31 H5         -8.3850   -0.2997    2.3914 H         1 <0>         0.0786
     32 H6         -7.1220   -1.3732    3.3891 H         1 <0>         0.4031
     33 H7         -6.5274   -0.1895    4.4225 H         1 <0>         0.4047
     34 H8         -3.5302   -1.6633   -0.0046 H         1 <0>         0.4040
     35 H9         -1.9911   -2.6034   -0.3707 H         1 <0>         0.1327
     36 H10         0.1696   -3.7137   -0.7327 H         1 <0>         0.1377
     37 H11         2.2644   -2.4356   -0.5626 H         1 <0>         0.1390
     38 H12         2.2152   -0.0355   -0.0408 H         1 <0>         0.1416
     39 H13         0.2554   -0.2691    2.4280 H         1 <0>         0.1203
     40 H14         0.2275    0.3926    4.7986 H         1 <0>         0.1225
     41 H15        -0.0250    2.7623    5.4140 H         1 <0>         0.1233
     42 H16        -0.2425    4.4765    3.6612 H         1 <0>         0.1299
     43 H17        -0.2065    3.8243    1.2881 H         1 <0>         0.1308
     44 H18        -8.6005   -0.1044   -2.3587 H         1 <0>         0.0763
     45 H19        -9.2531   -1.3364   -1.2521 H         1 <0>         0.0831
     46 H20        -9.3794    0.3897   -0.8363 H         1 <0>         0.0835
@<TRIPOS>BOND
     1    1    2 1
     2    1   29 1
     3    1   30 1
     4    1   31 1
     5    2    7 1
     6    2    3 2
     7    3    4 1
     8    3   28 1
     9    4    5 1
    10    5    6 1
    11    5    7 1
    12    5   12 1
    13    7    8 1
    14    7    9 1
    15    9   10 2
    16    9   11 am
    17   11   32 1
    18   11   33 1
    19   12   13 am
    20   12   34 1
    21   13   14 2
    22   13   15 1
    23   15   20 ar
    24   15   16 ar
    25   16   17 ar
    26   16   35 1
    27   17   18 ar
    28   17   36 1
    29   18   19 ar
    30   18   37 1
    31   19   20 ar
    32   19   38 1
    33   20   21 1
    34   21   22 1
    35   22   27 ar
    36   22   23 ar
    37   23   24 ar
    38   23   39 1
    39   24   25 ar
    40   24   40 1
    41   25   26 ar
    42   25   41 1
    43   26   27 ar
    44   26   42 1
    45   27   43 1
    46   28   44 1
    47   28   45 1
    48   28   46 1
@<TRIPOS>MOLECULE
ZINC35681714
   38    40     0     0     0
SMALL
USER_CHARGES

@<TRIPOS>ATOM
      1 C1          0.0393    1.5041    0.0065 C.3       1 <0>        -0.1216
      2 C2          0.0501   -0.0028   -0.0012 C.ar      1 <0>        -0.0607
      3 C3          0.0503   -0.6854   -1.2047 C.ar      1 <0>        -0.1212
      4 C4          0.0606   -2.0648   -1.2188 C.ar      1 <0>        -0.0814
      5 C5          0.0709   -2.7720   -0.0153 C.ar      1 <0>        -0.0314
      6 C6          0.0706   -2.0771    1.1954 C.ar      1 <0>        -0.0632
      7 C7          0.0655   -0.6975    1.1953 C.ar      1 <0>        -0.1222
      8 C8          0.0815   -4.2498   -0.0228 C.2       1 <0>         0.2494
      9 N1          0.0862   -5.0087    1.0413 N.2       1 <0>        -0.4389
     10 C9          0.0953   -6.3098    0.6469 C.2       1 <0>        -0.0444
     11 C10         0.0959   -6.3102   -0.7414 C.2       1 <0>         0.0000
     12 O1          0.0818   -5.0208   -1.1274 O.3       1 <0>        -0.1806
     13 S1          0.1065   -7.7236   -1.7934 S.3       1 <0>         0.1950
     14 C11        -0.0523   -7.0501   -3.4138 C.ar      1 <0>        -0.1897
     15 C12         1.0805   -6.8073   -4.1808 C.ar      1 <0>        -0.0399
     16 C13         0.9530   -6.2794   -5.4503 C.ar      1 <0>        -0.1217
     17 C14        -0.3017   -5.9921   -5.9590 C.ar      1 <0>         0.0027
     18 C15        -1.4319   -6.2329   -5.1973 C.ar      1 <0>        -0.1212
     19 C16        -1.3109   -6.7661   -3.9293 C.ar      1 <0>        -0.0406
     20 Cl1        -0.4581   -5.3280   -7.5553 Cl        1 <0>        -0.0539
     21 C17         0.1037   -7.4870    1.5205 C.2       1 <0>         0.6042
     22 O2          0.1119   -8.6040    1.0365 O.2       1 <0>        -0.5113
     23 N2          0.1024   -7.3327    2.8594 N.am      1 <0>        -0.5600
     24 N3          0.1103   -8.4296    3.6734 N.3       1 <0>        -0.5989
     25 H1          1.0643    1.8748   -0.0006 H         1 <0>         0.0765
     26 H2         -0.4849    1.8682   -0.8772 H         1 <0>         0.0707
     27 H3         -0.4693    1.8593    0.9027 H         1 <0>         0.0713
     28 H4          0.0421   -0.1371   -2.1351 H         1 <0>         0.1319
     29 H5          0.0604   -2.5965   -2.1589 H         1 <0>         0.1294
     30 H6          0.0781   -2.6182    2.1300 H         1 <0>         0.1391
     31 H7          0.0694   -0.1586    2.1312 H         1 <0>         0.1339
     32 H8          2.0599   -7.0309   -3.7842 H         1 <0>         0.1450
     33 H9          1.8332   -6.0901   -6.0468 H         1 <0>         0.1443
     34 H10        -2.4097   -6.0075   -5.5967 H         1 <0>         0.1442
     35 H11        -2.1934   -6.9580   -3.3371 H         1 <0>         0.1441
     36 H12         0.0959   -6.4426    3.2450 H         1 <0>         0.4103
     37 H13         0.8960   -9.0278    3.4664 H         1 <0>         0.3492
     38 H14         0.1081   -8.1587    4.6453 H         1 <0>         0.3615
@<TRIPOS>BOND
     1    1    2 1
     2    1   25 1
     3    1   26 1
     4    1   27 1
     5    2    7 ar
     6    2    3 ar
     7    3    4 ar
     8    3   28 1
     9    4    5 ar
    10    4   29 1
    11    5    6 ar
    12    5    8 1
    13    6    7 ar
    14    6   30 1
    15    7   31 1
    16    8   12 1
    17    8    9 2
    18    9   10 1
    19   10   11 2
    20   10   21 1
    21   11   12 1
    22   11   13 1
    23   13   14 1
    24   14   19 ar
    25   14   15 ar
    26   15   16 ar
    27   15   32 1
    28   16   17 ar
    29   16   33 1
    30   17   18 ar
    31   17   20 1
    32   18   19 ar
    33   18   34 1
    34   19   35 1
    35   21   22 2
    36   21   23 am
    37   23   24 1
    38   23   36 1
    39   24   37 1
    40   24   38 1
@<TRIPOS>MOLECULE
ZINC54412254
   50    51     0     0     0
SMALL
USER_CHARGES

@<TRIPOS>ATOM
      1 C1         -0.3844    1.3074    0.2674 C.3       1 <0>        -0.1126
      2 C2         -0.1821   -0.1745    0.0831 C.ar      1 <0>        -0.1305
      3 C3         -0.3232   -0.7399   -1.1699 C.ar      1 <0>        -0.0824
      4 C4         -0.1386   -2.0978   -1.3429 C.ar      1 <0>        -0.1329
      5 C5          0.1892   -2.8998   -0.2566 C.ar      1 <0>         0.1561
      6 C6          0.3315   -2.3353    1.0026 C.ar      1 <0>        -0.1514
      7 C7          0.1514   -0.9698    1.1719 C.ar      1 <0>         0.1801
      8 N1          0.3002   -0.3956    2.4394 N.am      1 <0>        -0.6790
      9 C8          0.0577   -1.1286    3.5441 C.2       1 <0>         0.7092
     10 O1         -0.2139   -2.3094    3.4425 O.2       1 <0>        -0.5685
     11 N2          0.1162   -0.5528    4.7612 N.am      1 <0>        -0.7369
     12 C9         -0.1474   -1.3497    5.9620 C.3       1 <0>         0.2507
     13 H1         -0.9151   -2.0922    5.7440 H         1 <0>         0.1118
     14 C10         1.1376   -2.0573    6.3967 C.3       1 <0>        -0.1614
     15 C11        -0.6229   -0.4460    7.0702 C.2       1 <0>        -0.1664
     16 C12        -1.5924   -0.6633    7.9922 C.2       1 <0>        -0.1323
     17 C13        -1.8614    0.3193    8.9265 C.2       1 <0>        -0.1644
     18 C14        -1.1477    1.4711    8.8931 C.2       1 <0>        -0.1308
     19 S1         -0.0500    1.1855    7.5143 S.3       1 <0>         0.0357
     20 C15        -1.2502    2.6775    9.7904 C.3       1 <0>        -0.0741
     21 N3          0.3750   -4.2755   -0.4325 N.am      1 <0>        -0.6721
     22 C16         0.9441   -4.7395   -1.5627 C.2       1 <0>         0.5166
     23 O2          1.2202   -3.9733   -2.4614 O.2       1 <0>        -0.5180
     24 C17         1.2372   -6.2104   -1.7097 C.3       1 <0>        -0.1133
     25 C18        -0.0663   -7.0038   -1.5995 C.3       1 <0>        -0.1474
     26 C19         1.8777   -6.4688   -3.0749 C.3       1 <0>        -0.1345
     27 H2          0.5643    1.8243    0.1228 H         1 <0>         0.0700
     28 H3         -1.1097    1.6686   -0.4617 H         1 <0>         0.0721
     29 H4         -0.7540    1.5013    1.2743 H         1 <0>         0.0606
     30 H5         -0.5786   -0.1187   -2.0156 H         1 <0>         0.1297
     31 H6         -0.2496   -2.5367   -2.3234 H         1 <0>         0.1379
     32 H7          0.5858   -2.9566    1.8486 H         1 <0>         0.1557
     33 H8          0.5778    0.5301    2.5229 H         1 <0>         0.4085
     34 H9          0.3328    0.3892    4.8422 H         1 <0>         0.3977
     35 H10         1.9053   -1.3148    6.6147 H         1 <0>         0.0609
     36 H11         0.9415   -2.6501    7.2901 H         1 <0>         0.0731
     37 H12         1.4815   -2.7109    5.5951 H         1 <0>         0.0718
     38 H13        -2.1467   -1.5902    7.9966 H         1 <0>         0.1359
     39 H14        -2.6290    0.1715    9.6718 H         1 <0>         0.1360
     40 H15        -0.5794    2.5558   10.6409 H         1 <0>         0.0814
     41 H16        -0.9704    3.5707    9.2318 H         1 <0>         0.0751
     42 H17        -2.2751    2.7786   10.1475 H         1 <0>         0.0834
     43 H18         0.0943   -4.8951    0.2590 H         1 <0>         0.4118
     44 H19         1.9217   -6.5250   -0.9218 H         1 <0>         0.1010
     45 H20        -0.7508   -6.6892   -2.3873 H         1 <0>         0.0631
     46 H21         0.1457   -8.0676   -1.7058 H         1 <0>         0.0722
     47 H22        -0.5226   -6.8196   -0.6269 H         1 <0>         0.0601
     48 H23         2.8064   -5.9036   -3.1534 H         1 <0>         0.0630
     49 H24         2.0898   -7.5327   -3.1812 H         1 <0>         0.0644
     50 H25         1.1933   -6.1543   -3.8627 H         1 <0>         0.0635
@<TRIPOS>BOND
     1    1    2 1
     2    1   27 1
     3    1   28 1
     4    1   29 1
     5    2    7 ar
     6    2    3 ar
     7    3    4 ar
     8    3   30 1
     9    4    5 ar
    10    4   31 1
    11    5    6 ar
    12    5   21 1
    13    6    7 ar
    14    6   32 1
    15    7    8 1
    16    8    9 am
    17    8   33 1
    18    9   10 2
    19    9   11 am
    20   11   12 1
    21   11   34 1
    22   12   13 1
    23   12   14 1
    24   12   15 1
    25   14   35 1
    26   14   36 1
    27   14   37 1
    28   15   19 1
    29   15   16 2
    30   16   17 1
    31   16   38 1
    32   17   18 2
    33   17   39 1
    34   18   19 1
    35   18   20 1
    36   20   40 1
    37   20   41 1
    38   20   42 1
    39   21   22 am
    40   21   43 1
    41   22   23 2
    42   22   24 1
    43   24   25 1
    44   24   26 1
    45   24   44 1
    46   25   45 1
    47   25   46 1
    48   25   47 1
    49   26   48 1
    50   26   49 1
    51   26   50 1
@<TRIPOS>MOLECULE
ZINC66402165
   43    44     0     0     0
SMALL
USER_CHARGES

@<TRIPOS>ATOM
      1 C1          2.0370   -2.5479    0.0673 C.3       1 <0>        -0.1497
      2 C2          1.3149   -2.1362   -1.2173 C.3       1 <0>        -0.0937
      3 C3         -0.0312   -2.8588   -1.2997 C.3       1 <0>        -0.1465
      4 C4          1.0824   -0.6240   -1.2094 C.3       1 <0>        -0.1232
      5 C5          2.4296    0.0995   -1.2591 C.3       1 <0>         0.2515
      6 H1          3.0540   -0.2381   -0.4320 H         1 <0>         0.1131
      7 C6          3.1166   -0.2072   -2.5649 C.2       1 <0>        -0.1527
      8 C7          4.1011   -1.1028   -2.8217 C.2       1 <0>        -0.1411
      9 C8          4.5850   -1.2155   -4.1116 C.2       1 <0>        -0.1549
     10 C9          4.0608   -0.4270   -5.0815 C.2       1 <0>        -0.1666
     11 S1          2.8395    0.5092   -4.1764 S.3       1 <0>         0.0361
     12 N1          2.2125    1.5441   -1.1491 N.am      1 <0>        -0.7387
     13 C10         2.0625    2.1126    0.0637 C.2       1 <0>         0.7141
     14 O1          2.2034    1.4445    1.0699 O.2       1 <0>        -0.5582
     15 N2          1.7562    3.4214    0.1612 N.am      1 <0>        -0.6748
     16 C11         1.7029    4.0371    1.4198 C.2       1 <0>         0.0588
     17 C12         2.5200    5.0958    1.7077 C.2       1 <0>        -0.0085
     18 C13         2.4460    5.6934    2.9739 C.2       1 <0>        -0.2853
     19 C14         1.5743    5.2228    3.8948 C.2       1 <0>         0.2057
     20 N3          0.7617    4.1705    3.6108 N.am      1 <0>        -0.5975
     21 H2          0.1430    3.8472    4.2843 H         1 <0>         0.4281
     22 C15         0.8013    3.5756    2.4033 C.2       1 <0>         0.5226
     23 O2          0.0617    2.6353    2.1609 O.2       1 <0>        -0.4989
     24 C16         3.3387    6.8604    3.3092 C.3       1 <0>         0.5303
     25 F1          3.0839    7.2813    4.6188 F         1 <0>        -0.1772
     26 F2          4.6776    6.4707    3.1968 F         1 <0>        -0.1718
     27 F3          3.0833    7.9125    2.4232 F         1 <0>        -0.1728
     28 H3          3.0381   -2.1168    0.0754 H         1 <0>         0.0533
     29 H4          1.4783   -2.1855    0.9302 H         1 <0>         0.0586
     30 H5          2.1090   -3.6346    0.1113 H         1 <0>         0.0549
     31 H6          1.9252   -2.4054   -2.0794 H         1 <0>         0.0732
     32 H7         -0.6414   -2.5895   -0.4376 H         1 <0>         0.0553
     33 H8         -0.5456   -2.5655   -2.2148 H         1 <0>         0.0534
     34 H9          0.1345   -3.9361   -1.3053 H         1 <0>         0.0559
     35 H10         0.4870   -0.3434   -2.0782 H         1 <0>         0.0669
     36 H11         0.5522   -0.3427   -0.2995 H         1 <0>         0.0808
     37 H12         4.5016   -1.7190   -2.0303 H         1 <0>         0.1355
     38 H13         5.3694   -1.9209   -4.3430 H         1 <0>         0.1367
     39 H14         4.3136   -0.3801   -6.1305 H         1 <0>         0.1873
     40 H15         2.1767    2.0915   -1.9490 H         1 <0>         0.3968
     41 H16         1.5727    3.9375   -0.6393 H         1 <0>         0.4094
     42 H17         3.2143    5.4667    0.9683 H         1 <0>         0.1490
     43 H18         1.5233    5.6886    4.8679 H         1 <0>         0.1846
@<TRIPOS>BOND
     1    1    2 1
     2    1   28 1
     3    1   29 1
     4    1   30 1
     5    2    3 1
     6    2    4 1
     7    2   31 1
     8    3   32 1
     9    3   33 1
    10    3   34 1
    11    4    5 1
    12    4   35 1
    13    4   36 1
    14    5    6 1
    15    5    7 1
    16    5   12 1
    17    7   11 1
    18    7    8 2
    19    8    9 1
    20    8   37 1
    21    9   10 2
    22    9   38 1
    23   10   11 1
    24   10   39 1
    25   12   13 am
    26   12   40 1
    27   13   14 2
    28   13   15 am
    29   15   16 1
    30   15   41 1
    31   16   22 1
    32   16   17 2
    33   17   18 1
    34   17   42 1
    35   18   19 2
    36   18   24 1
    37   19   20 1
    38   19   43 1
    39   20   21 1
    40   20   22 am
    41   22   23 2
    42   24   25 1
    43   24   26 1
    44   24   27 1
@<TRIPOS>MOLECULE
ZINC01171959
   54    56     0     0     0
SMALL
USER_CHARGES
4-(2,5-dimethoxyphenyl)-N-(2,4-dimethylphenyl)-6-methyl-2-thioxo-3,4-dihydro-1H-pyrimidine-5-carboxamide
@<TRIPOS>ATOM
      1 C1          3.3177    5.3347    2.4866 C.3       1 <0>        -0.1135
      2 C2          2.1136    4.4469    2.3045 C.ar      1 <0>        -0.1040
      3 C3          1.8067    3.9490    1.0513 C.ar      1 <0>        -0.1049
      4 C4          0.7074    3.1306    0.8821 C.ar      1 <0>        -0.1523
      5 C5         -0.0966    2.8163    1.9704 C.ar      1 <0>         0.1421
      6 C6          0.2143    3.3180    3.2274 C.ar      1 <0>        -0.1186
      7 C7          1.3184    4.1317    3.3908 C.ar      1 <0>        -0.0998
      8 C8         -0.6516    2.9745    4.4120 C.3       1 <0>        -0.1139
      9 N1         -1.2134    1.9917    1.8015 N.am      1 <0>        -0.6557
     10 C9         -1.6320    1.6696    0.5616 C.2       1 <0>         0.5999
     11 O1         -0.9974    2.0380   -0.4101 O.2       1 <0>        -0.4900
     12 C10        -2.8099    0.9025    0.3888 C.2       1 <0>        -0.2453
     13 C11        -4.0316    1.4555    0.5426 C.2       1 <0>         0.1712
     14 N2         -5.1668    0.7159    0.3715 N.pl3     1 <0>        -0.5993
     15 C12        -5.1647   -0.5852    0.0554 C.2       1 <0>         0.5597
     16 S1         -6.6617   -1.3963   -0.1238 S.2       1 <0>        -0.5966
     17 N3         -4.0225   -1.2773   -0.1258 N.pl3     1 <0>        -0.6460
     18 C13        -2.7413   -0.5684    0.0312 C.3       1 <0>         0.2335
     19 H1         -2.1896   -0.6614   -0.9043 H         1 <0>         0.1131
     20 C14        -1.9501   -1.2710    1.1042 C.ar      1 <0>        -0.1173
     21 C15        -2.5985   -1.8165    2.1953 C.ar      1 <0>        -0.0977
     22 C16        -1.8709   -2.4672    3.1803 C.ar      1 <0>         0.0969
     23 C17        -0.4908   -2.5608    3.0755 C.ar      1 <0>        -0.1561
     24 C18         0.1579   -2.0108    1.9874 C.ar      1 <0>        -0.1631
     25 C19        -0.5705   -1.3649    0.9992 C.ar      1 <0>         0.1143
     26 O2          0.0683   -0.8234   -0.0722 O.3       1 <0>        -0.3052
     27 C20         1.4750   -1.0539   -0.1734 C.3       1 <0>         0.0288
     28 O3         -2.5097   -3.0087    4.2517 O.3       1 <0>        -0.3142
     29 C21        -1.6971   -3.6589    5.2310 C.3       1 <0>         0.0265
     30 C22        -4.1447    2.9140    0.9043 C.3       1 <0>        -0.1361
     31 H2          4.1894    4.7220    2.7163 H         1 <0>         0.0682
     32 H3          3.4986    5.8944    1.5690 H         1 <0>         0.0656
     33 H4          3.1360    6.0298    3.3064 H         1 <0>         0.0644
     34 H5          2.4301    4.1968    0.2049 H         1 <0>         0.1230
     35 H6          0.4708    2.7385   -0.0960 H         1 <0>         0.1800
     36 H7          1.5610    4.5219    4.3682 H         1 <0>         0.1235
     37 H8         -0.2328    2.1119    4.9303 H         1 <0>         0.0705
     38 H9         -0.6893    3.8246    5.0932 H         1 <0>         0.0736
     39 H10        -1.6591    2.7386    4.0694 H         1 <0>         0.0575
     40 H11        -1.6845    1.6484    2.5769 H         1 <0>         0.4100
     41 H12        -6.0226    1.1571    0.4889 H         1 <0>         0.4419
     42 H13        -4.0439   -2.2198   -0.3538 H         1 <0>         0.4484
     43 H14        -3.6725   -1.7395    2.2793 H         1 <0>         0.1341
     44 H15         0.0762   -3.0640    3.8447 H         1 <0>         0.1345
     45 H16         1.2324   -2.0834    1.9060 H         1 <0>         0.1359
     46 H17         1.8732   -0.5019   -1.0247 H         1 <0>         0.1034
     47 H18         1.9650   -0.7164    0.7399 H         1 <0>         0.0551
     48 H19         1.6595   -2.1191   -0.3125 H         1 <0>         0.0558
     49 H20        -1.1562   -4.4828    4.7654 H         1 <0>         0.0560
     50 H21        -0.9852   -2.9446    5.6447 H         1 <0>         0.0553
     51 H22        -2.3300   -4.0452    6.0299 H         1 <0>         0.1030
     52 H23        -4.2701    3.5048   -0.0031 H         1 <0>         0.1001
     53 H24        -5.0064    3.0611    1.5555 H         1 <0>         0.0917
     54 H25        -3.2396    3.2312    1.4222 H         1 <0>         0.0922
@<TRIPOS>BOND
     1    1    2 1
     2    1   31 1
     3    1   32 1
     4    1   33 1
     5    2    7 ar
     6    2    3 ar
     7    3    4 ar
     8    3   34 1
     9    4    5 ar
    10    4   35 1
    11    5    6 ar
    12    5    9 1
    13    6    7 ar
    14    6    8 1
    15    7   36 1
    16    8   37 1
    17    8   38 1
    18    8   39 1
    19    9   10 am
    20    9   40 1
    21   10   11 2
    22   10   12 1
    23   12   18 1
    24   12   13 2
    25   13   14 1
    26   13   30 1
    27   14   15 1
    28   14   41 1
    29   15   16 2
    30   15   17 1
    31   17   18 1
    32   17   42 1
    33   18   19 1
    34   18   20 1
    35   20   25 ar
    36   20   21 ar
    37   21   22 ar
    38   21   43 1
    39   22   23 ar
    40   22   28 1
    41   23   24 ar
    42   23   44 1
    43   24   25 ar
    44   24   45 1
    45   25   26 1
    46   26   27 1
    47   27   46 1
    48   27   47 1
    49   27   48 1
    50   28   29 1
    51   29   49 1
    52   29   50 1
    53   29   51 1
    54   30   52 1
    55   30   53 1
    56   30   54 1
@<TRIPOS>MOLECULE
ZINC20528055
   39    41     0     0     0
SMALL
USER_CHARGES
5-[(4-chlorophenyl)methylsulfanyl]-N-[(4-fluorophenyl)methyleneamino]-1,2,4-triazole-3,4-diamine
@<TRIPOS>ATOM
      1 C1          1.0568   -0.6840    0.5821 C.ar      1 <0>        -0.0835
      2 C2          1.0733   -2.0660    0.5798 C.ar      1 <0>        -0.1103
      3 C3          0.0396   -2.7689   -0.0132 C.ar      1 <0>        -0.0250
      4 C4         -1.0129   -2.0878   -0.5985 C.ar      1 <0>        -0.1103
      5 C5         -1.0311   -0.7058   -0.5906 C.ar      1 <0>        -0.0836
      6 C6          0.0021   -0.0041    0.0020 C.ar      1 <0>        -0.0788
      7 C7         -0.0184    1.5028    0.0103 C.3       1 <0>        -0.0587
      8 S1         -0.8674    2.0878    1.5028 S.3       1 <0>        -0.0008
      9 C8         -0.8086    3.8435    1.3661 C.2       1 <0>         0.1869
     10 N1         -0.2625    4.5226    0.3858 N.2       1 <0>        -0.3006
     11 N2         -0.4308    5.8866    0.6578 N.2       1 <0>        -0.3134
     12 C9         -1.0739    5.9965    1.7949 C.2       1 <0>         0.4860
     13 N3         -1.3289    4.7362    2.2596 N.pl3     1 <0>        -0.2643
     14 N4         -1.9858    4.4244    3.4160 N.3       1 <0>        -0.7778
     15 N5         -1.4369    7.1833    2.4152 N.pl3     1 <0>        -0.5606
     16 N6         -1.1146    8.4109    1.8218 N.2       1 <0>        -0.1905
     17 C10        -1.4543    9.5217    2.4024 C.2       1 <0>         0.0935
     18 C11        -1.1152   10.8135    1.7780 C.ar      1 <0>        -0.0615
     19 C12        -0.4232   10.8458    0.5645 C.ar      1 <0>        -0.0512
     20 C13        -0.1131   12.0570   -0.0169 C.ar      1 <0>        -0.1565
     21 C14        -0.4771   13.2409    0.6052 C.ar      1 <0>         0.1141
     22 C15        -1.1590   13.2154    1.8116 C.ar      1 <0>        -0.1577
     23 C16        -1.4794   12.0103    2.4002 C.ar      1 <0>        -0.0617
     24 F1         -0.1663   14.4247    0.0330 F         1 <0>        -0.1360
     25 Cl1         0.0628   -4.5047   -0.0222 Cl        1 <0>        -0.0640
     26 H1          1.8658   -0.1351    1.0410 H         1 <0>         0.1378
     27 H2          1.8951   -2.5971    1.0368 H         1 <0>         0.1383
     28 H3         -1.8203   -2.6360   -1.0612 H         1 <0>         0.1383
     29 H4         -1.8528   -0.1741   -1.0472 H         1 <0>         0.1378
     30 H5          1.0136    1.8836    0.0024 H         1 <0>         0.1117
     31 H6         -0.5505    1.8672   -0.8808 H         1 <0>         0.1116
     32 H7         -2.3660    5.2263    4.0659 H         1 <0>         0.4365
     33 H8         -2.1346    3.3714    3.6973 H         1 <0>         0.4488
     34 H9         -1.9777    7.1605    3.3728 H         1 <0>         0.4102
     35 H10        -1.9950    9.4988    3.3600 H         1 <0>         0.1274
     36 H11        -0.1355    9.9240    0.0810 H         1 <0>         0.1464
     37 H12         0.4178   12.0833   -0.9570 H         1 <0>         0.1410
     38 H13        -1.4396   14.1412    2.2917 H         1 <0>         0.1411
     39 H14        -2.0104   11.9917    3.3404 H         1 <0>         0.1391
@<TRIPOS>BOND
     1    1    6 ar
     2    1    2 ar
     3    1   26 1
     4    2    3 ar
     5    2   27 1
     6    3    4 ar
     7    3   25 1
     8    4    5 ar
     9    4   28 1
    10    5    6 ar
    11    5   29 1
    12    6    7 1
    13    7    8 1
    14    7   30 1
    15    7   31 1
    16    8    9 1
    17    9   13 1
    18    9   10 2
    19   10   11 1
    20   11   12 2
    21   12   13 1
    22   12   15 1
    23   13   14 1
    24   14   32 1
    25   14   33 1
    26   15   16 1
    27   15   34 1
    28   16   17 2
    29   17   18 1
    30   17   35 1
    31   18   23 ar
    32   18   19 ar
    33   19   20 ar
    34   19   36 1
    35   20   21 ar
    36   20   37 1
    37   21   22 ar
    38   21   24 1
    39   22   23 ar
    40   22   38 1
    41   23   39 1
@<TRIPOS>MOLECULE
ZINC03531207
   55    56     0     0     0
SMALL
USER_CHARGES

@<TRIPOS>ATOM
      1 C1         -0.0187    1.5258    0.0104 C.3       1 <0>        -0.1677
      2 C2          0.0021   -0.0041    0.0020 C.3       1 <0>         0.1459
      3 H1          0.5123   -0.3556   -0.8948 H         1 <0>         0.0916
      4 C3         -1.4333   -0.5336    0.0129 C.3       1 <0>        -0.1035
      5 C4         -2.1733   -0.0268   -1.2266 C.3       1 <0>        -0.1485
      6 C5         -1.4126   -2.0635    0.0045 C.3       1 <0>        -0.1498
      7 N1          0.7106   -0.4894    1.1889 N.am      1 <0>        -0.7172
      8 C6          2.0538   -0.5998    1.1737 C.2       1 <0>         0.5377
      9 O1          2.6758   -0.2974    0.1774 O.2       1 <0>        -0.5215
     10 C7          2.7826   -1.0990    2.3946 C.3       1 <0>        -0.1584
     11 S1          4.5656   -1.1340    2.0622 S.3       1 <0>         0.1101
     12 C8          5.2675   -1.7313    3.5640 C.2       1 <0>         0.1738
     13 N2          4.6108   -2.0694    4.6513 N.2       1 <0>        -0.2905
     14 N3          5.4319   -2.4623    5.5584 N.2       1 <0>        -0.2535
     15 C9          6.6627   -2.3994    5.1064 C.2       1 <0>         0.1958
     16 N4          6.5947   -1.9348    3.8131 N.pl3     1 <0>        -0.3010
     17 N5          7.6376   -1.7195    2.9576 N.3       1 <0>        -0.5854
     18 C10         7.8898   -2.7647    5.8455 C.ar      1 <0>        -0.0248
     19 C11         9.1390   -2.3571    5.3748 C.ar      1 <0>        -0.1186
     20 C12        10.2803   -2.7010    6.0695 C.ar      1 <0>        -0.1058
     21 C13        10.1884   -3.4483    7.2303 C.ar      1 <0>        -0.0513
     22 C14         8.9533   -3.8559    7.7020 C.ar      1 <0>        -0.1133
     23 C15         7.8039   -3.5139    7.0200 C.ar      1 <0>        -0.0675
     24 C16        11.4393   -3.8202    7.9839 C.3       1 <0>        -0.0331
     25 C17        12.1707   -2.5483    8.4176 C.3       1 <0>        -0.1404
     26 C18        11.0651   -4.6401    9.2203 C.3       1 <0>        -0.1480
     27 C19        12.3522   -4.6500    7.0789 C.3       1 <0>        -0.1404
     28 H2          1.0039    1.9031    0.0027 H         1 <0>         0.0616
     29 H3         -0.5459    1.8868   -0.8726 H         1 <0>         0.0715
     30 H4         -0.5289    1.8773    0.9072 H         1 <0>         0.0578
     31 H5         -1.9435   -0.1821    0.9097 H         1 <0>         0.0764
     32 H6         -1.6631   -0.3783   -2.1234 H         1 <0>         0.0586
     33 H7         -3.1959   -0.4041   -1.2189 H         1 <0>         0.0606
     34 H8         -2.1881    1.0631   -1.2207 H         1 <0>         0.0619
     35 H9         -0.8854   -2.4246    0.8875 H         1 <0>         0.0551
     36 H10        -2.4352   -2.4408    0.0122 H         1 <0>         0.0587
     37 H11        -0.9024   -2.4150   -0.8923 H         1 <0>         0.0571
     38 H12         0.2131   -0.7312    1.9857 H         1 <0>         0.4034
     39 H13         2.5826   -0.4337    3.2345 H         1 <0>         0.1258
     40 H14         2.4385   -2.1044    2.6374 H         1 <0>         0.1264
     41 H15         7.9903   -0.7784    3.0471 H         1 <0>         0.3687
     42 H16         8.3715   -2.3962    3.1046 H         1 <0>         0.3803
     43 H17         9.2121   -1.7740    4.4687 H         1 <0>         0.1144
     44 H18        11.2475   -2.3865    5.7062 H         1 <0>         0.1309
     45 H19         8.8885   -4.4397    8.6083 H         1 <0>         0.1384
     46 H20         6.8400   -3.8289    7.3916 H         1 <0>         0.1390
     47 H21        11.5203   -1.9571    9.0623 H         1 <0>         0.0580
     48 H22        13.0755   -2.8173    8.9627 H         1 <0>         0.0622
     49 H23        12.4373   -1.9642    7.5368 H         1 <0>         0.0574
     50 H24        10.5440   -5.5463    8.9113 H         1 <0>         0.0608
     51 H25        11.9698   -4.9091    9.7654 H         1 <0>         0.0618
     52 H26        10.4147   -4.0489    9.8650 H         1 <0>         0.0608
     53 H27        12.6189   -4.0659    6.1981 H         1 <0>         0.0575
     54 H28        13.2570   -4.9191    7.6240 H         1 <0>         0.0621
     55 H29        11.8312   -5.5562    6.7699 H         1 <0>         0.0581
@<TRIPOS>BOND
     1    1    2 1
     2    1   28 1
     3    1   29 1
     4    1   30 1
     5    2    3 1
     6    2    4 1
     7    2    7 1
     8    4    5 1
     9    4    6 1
    10    4   31 1
    11    5   32 1
    12    5   33 1
    13    5   34 1
    14    6   35 1
    15    6   36 1
    16    6   37 1
    17    7    8 am
    18    7   38 1
    19    8    9 2
    20    8   10 1
    21   10   11 1
    22   10   39 1
    23   10   40 1
    24   11   12 1
    25   12   16 1
    26   12   13 2
    27   13   14 1
    28   14   15 2
    29   15   16 1
    30   15   18 1
    31   16   17 1
    32   17   41 1
    33   17   42 1
    34   18   23 ar
    35   18   19 ar
    36   19   20 ar
    37   19   43 1
    38   20   21 ar
    39   20   44 1
    40   21   22 ar
    41   21   24 1
    42   22   23 ar
    43   22   45 1
    44   23   46 1
    45   24   25 1
    46   24   26 1
    47   24   27 1
    48   25   47 1
    49   25   48 1
    50   25   49 1
    51   26   50 1
    52   26   51 1
    53   26   52 1
    54   27   53 1
    55   27   54 1
    56   27   55 1
@<TRIPOS>MOLECULE
ZINC57394048
   51    53     0     0     0
SMALL
USER_CHARGES

@<TRIPOS>ATOM
      1 C1         -2.1806    1.6835   -1.1032 C.3       1 <0>        -0.1467
      2 C2         -1.8859    0.2006   -1.3378 C.3       1 <0>        -0.0940
      3 C3         -0.7850    0.0597   -2.3908 C.3       1 <0>        -0.1511
      4 C4         -1.4238   -0.4409   -0.0279 C.3       1 <0>        -0.1235
      5 C5         -1.2660   -1.9497   -0.2267 C.3       1 <0>         0.2480
      6 H1         -0.5837   -2.1375   -1.0557 H         1 <0>         0.1179
      7 C6         -2.6096   -2.5591   -0.5340 C.2       1 <0>        -0.1536
      8 C7         -3.1275   -2.9238   -1.7324 C.2       1 <0>        -0.1383
      9 C8         -4.3964   -3.4704   -1.7759 C.2       1 <0>        -0.1536
     10 C9         -5.0853   -3.6256   -0.6189 C.2       1 <0>        -0.1633
     11 S1         -3.9292   -2.9951    0.5866 S.3       1 <0>         0.0259
     12 N1         -0.7259   -2.5495    0.9958 N.am      1 <0>        -0.7407
     13 C10         0.6075   -2.6309    1.1743 C.2       1 <0>         0.7171
     14 O1          1.3613   -2.1338    0.3600 O.2       1 <0>        -0.5629
     15 N2          1.1054   -3.2631    2.2554 N.am      1 <0>        -0.5257
     16 N3          0.2368   -3.8358    3.1938 N.am      1 <0>        -0.5342
     17 C11         0.7347   -4.4680    4.2749 C.2       1 <0>         0.5981
     18 O2          1.9385   -4.5414    4.4360 O.2       1 <0>        -0.5283
     19 C12        -0.1761   -5.0685    5.2589 C.2       1 <0>        -0.2266
     20 C13        -1.5390   -5.0734    5.2131 C.2       1 <0>         0.1129
     21 N4         -2.0317   -5.7221    6.2955 N.pl3     1 <0>        -0.4665
     22 C14        -1.0028   -6.1704    7.0978 C.ar      1 <0>         0.0858
     23 C15         0.2033   -5.7903    6.4873 C.ar      1 <0>        -0.0579
     24 C16         1.4198   -6.1186    7.0798 C.ar      1 <0>        -0.0653
     25 C17         1.4336   -6.8208    8.2653 C.ar      1 <0>        -0.1358
     26 C18         0.2432   -7.2002    8.8679 C.ar      1 <0>        -0.0961
     27 C19        -0.9680   -6.8746    8.2967 C.ar      1 <0>        -0.1243
     28 C20        -3.4562   -5.9194    6.5749 C.3       1 <0>         0.0694
     29 H2         -2.5098    2.1406   -2.0364 H         1 <0>         0.0564
     30 H3         -2.9649    1.7839   -0.3530 H         1 <0>         0.0534
     31 H4         -1.2770    2.1826   -0.7532 H         1 <0>         0.0558
     32 H5         -2.7895   -0.2985   -1.6878 H         1 <0>         0.0736
     33 H6          0.0945    0.6204   -2.0743 H         1 <0>         0.0586
     34 H7         -0.5236   -0.9923   -2.5047 H         1 <0>         0.0554
     35 H8         -1.1415    0.4507   -3.3438 H         1 <0>         0.0552
     36 H9         -0.4670   -0.0116    0.2692 H         1 <0>         0.0813
     37 H10        -2.1638   -0.2523    0.7499 H         1 <0>         0.0678
     38 H11        -2.5574   -2.7891   -2.6397 H         1 <0>         0.1369
     39 H12        -4.8325   -3.7692   -2.7177 H         1 <0>         0.1378
     40 H13        -6.0751   -4.0295   -0.4656 H         1 <0>         0.1877
     41 H14        -1.3279   -2.8882    1.6768 H         1 <0>         0.3894
     42 H15         2.0651   -3.3216    2.3839 H         1 <0>         0.4463
     43 H16        -0.7228   -3.7772    3.0653 H         1 <0>         0.4139
     44 H17        -2.1359   -4.6269    4.4315 H         1 <0>         0.1753
     45 H18         2.3480   -5.8246    6.6124 H         1 <0>         0.1346
     46 H19         2.3755   -7.0773    8.7273 H         1 <0>         0.1278
     47 H20         0.2656   -7.7504    9.7970 H         1 <0>         0.1291
     48 H21        -1.8889   -7.1766    8.7732 H         1 <0>         0.1223
     49 H22        -3.7891   -6.8539    6.1232 H         1 <0>         0.0778
     50 H23        -3.6127   -5.9609    7.6528 H         1 <0>         0.0878
     51 H24        -4.0268   -5.0902    6.1566 H         1 <0>         0.0893
@<TRIPOS>BOND
     1    1    2 1
     2    1   29 1
     3    1   30 1
     4    1   31 1
     5    2    3 1
     6    2    4 1
     7    2   32 1
     8    3   33 1
     9    3   34 1
    10    3   35 1
    11    4    5 1
    12    4   36 1
    13    4   37 1
    14    5    6 1
    15    5    7 1
    16    5   12 1
    17    7   11 1
    18    7    8 2
    19    8    9 1
    20    8   38 1
    21    9   10 2
    22    9   39 1
    23   10   11 1
    24   10   40 1
    25   12   13 am
    26   12   41 1
    27   13   14 2
    28   13   15 am
    29   15   16 1
    30   15   42 1
    31   16   17 am
    32   16   43 1
    33   17   18 2
    34   17   19 1
    35   19   23 1
    36   19   20 2
    37   20   21 1
    38   20   44 1
    39   21   22 1
    40   21   28 1
    41   22   27 ar
    42   22   23 ar
    43   23   24 ar
    44   24   25 ar
    45   24   45 1
    46   25   26 ar
    47   25   46 1
    48   26   27 ar
    49   26   47 1
    50   27   48 1
    51   28   49 1
    52   28   50 1
    53   28   51 1
@<TRIPOS>MOLECULE
ZINC13942923
   54    56     0     0     0
SMALL
USER_CHARGES

@<TRIPOS>ATOM
      1 C1         -0.9214    1.9354    1.4738 C.3       1 <0>        -0.1181
      2 C2         -0.7688    0.5590    0.8795 C.2       1 <0>         0.2239
      3 C3         -1.7296    0.0785    0.0621 C.2       1 <0>        -0.2768
      4 C4         -1.5363   -1.3095   -0.5141 C.3       1 <0>         0.2153
      5 H1         -2.3879   -1.9198   -0.2133 H         1 <0>         0.0972
      6 N1         -0.3073   -2.0253   -0.1322 N.pl3     1 <0>        -0.6424
      7 C5          0.5610   -1.4117    0.6960 C.2       1 <0>         0.5550
      8 S1          1.9941   -2.2318    1.1486 S.2       1 <0>        -0.5884
      9 N2          0.3419   -0.1796    1.1723 N.pl3     1 <0>        -0.6008
     10 C6         -1.5591   -1.1961   -2.0167 C.ar      1 <0>        -0.1221
     11 C7         -2.6066   -1.7435   -2.7339 C.ar      1 <0>        -0.1055
     12 C8         -2.6321   -1.6421   -4.1123 C.ar      1 <0>        -0.1691
     13 C9         -1.6065   -0.9903   -4.7782 C.ar      1 <0>         0.1228
     14 C10        -0.5524   -0.4388   -4.0562 C.ar      1 <0>         0.1051
     15 C11        -0.5354   -0.5398   -2.6744 C.ar      1 <0>        -0.1420
     16 O1          0.4564    0.2019   -4.7052 O.3       1 <0>        -0.3015
     17 C12         1.4398    0.8501   -3.8959 C.3       1 <0>         0.0259
     18 O2         -1.6299   -0.8900   -6.1342 O.3       1 <0>        -0.2957
     19 C13        -2.7063   -1.5388   -6.8143 C.3       1 <0>         0.0756
     20 C14        -3.9413   -0.6360   -6.7924 C.3       1 <0>        -0.1824
     21 C15        -2.3015   -1.8143   -8.2638 C.3       1 <0>        -0.1492
     22 C16        -2.8795    0.8456   -0.2461 C.2       1 <0>         0.5890
     23 O3         -2.9650    1.9970    0.1407 O.2       1 <0>        -0.5195
     24 N3         -3.8793    0.3012   -0.9676 N.am      1 <0>        -0.6694
     25 C17        -4.9430    1.0986   -1.4016 C.ar      1 <0>         0.1515
     26 C18        -4.7200    2.4221   -1.7587 C.ar      1 <0>        -0.1176
     27 C19        -5.7726    3.2068   -2.1874 C.ar      1 <0>        -0.0997
     28 C20        -7.0475    2.6762   -2.2607 C.ar      1 <0>        -0.1348
     29 C21        -7.2729    1.3589   -1.9054 C.ar      1 <0>        -0.0994
     30 C22        -6.2237    0.5671   -1.4819 C.ar      1 <0>        -0.1477
     31 H2         -0.0570    2.1591    2.0990 H         1 <0>         0.0710
     32 H3         -0.9906    2.6714    0.6727 H         1 <0>         0.1115
     33 H4         -1.8269    1.9714    2.0794 H         1 <0>         0.1071
     34 H5         -0.1273   -2.9171   -0.4684 H         1 <0>         0.4478
     35 H6          1.0076    0.2086    1.7613 H         1 <0>         0.4433
     36 H7         -3.4066   -2.2518   -2.2161 H         1 <0>         0.1294
     37 H8         -3.4512   -2.0713   -4.6703 H         1 <0>         0.1428
     38 H9          0.2796   -0.1095   -2.1114 H         1 <0>         0.1281
     39 H10         0.9497    1.5508   -3.2200 H         1 <0>         0.0534
     40 H11         1.9817    0.1037   -3.3150 H         1 <0>         0.0549
     41 H12         2.1381    1.3900   -4.5354 H         1 <0>         0.1047
     42 H13        -2.9358   -2.4807   -6.3159 H         1 <0>         0.0732
     43 H14        -4.7624   -1.1309   -7.3111 H         1 <0>         0.0742
     44 H15        -4.2297   -0.4398   -5.7597 H         1 <0>         0.0628
     45 H16        -3.7118    0.3058   -7.2908 H         1 <0>         0.0691
     46 H17        -1.4216   -2.4575   -8.2794 H         1 <0>         0.0661
     47 H18        -3.1226   -2.3092   -8.7825 H         1 <0>         0.0789
     48 H19        -2.0720   -0.8724   -8.7622 H         1 <0>         0.0686
     49 H20        -3.8610   -0.6438   -1.1858 H         1 <0>         0.4061
     50 H21        -3.7247    2.8373   -1.7010 H         1 <0>         0.1305
     51 H22        -5.5999    4.2361   -2.4652 H         1 <0>         0.1250
     52 H23        -7.8690    3.2920   -2.5959 H         1 <0>         0.1231
     53 H24        -8.2699    0.9476   -1.9635 H         1 <0>         0.1259
     54 H25        -6.3996   -0.4629   -1.2088 H         1 <0>         0.1232
@<TRIPOS>BOND
     1    1    2 1
     2    1   31 1
     3    1   32 1
     4    1   33 1
     5    2    9 1
     6    2    3 2
     7    3    4 1
     8    3   22 1
     9    4    5 1
    10    4    6 1
    11    4   10 1
    12    6    7 1
    13    6   34 1
    14    7    8 2
    15    7    9 1
    16    9   35 1
    17   10   15 ar
    18   10   11 ar
    19   11   12 ar
    20   11   36 1
    21   12   13 ar
    22   12   37 1
    23   13   14 ar
    24   13   18 1
    25   14   15 ar
    26   14   16 1
    27   15   38 1
    28   16   17 1
    29   17   39 1
    30   17   40 1
    31   17   41 1
    32   18   19 1
    33   19   20 1
    34   19   21 1
    35   19   42 1
    36   20   43 1
    37   20   44 1
    38   20   45 1
    39   21   46 1
    40   21   47 1
    41   21   48 1
    42   22   23 2
    43   22   24 am
    44   24   25 1
    45   24   49 1
    46   25   30 ar
    47   25   26 ar
    48   26   27 ar
    49   26   50 1
    50   27   28 ar
    51   27   51 1
    52   28   29 ar
    53   28   52 1
    54   29   30 ar
    55   29   53 1
    56   30   54 1
@<TRIPOS>MOLECULE
ZINC01646794
   26    27     0     0     0
SMALL
USER_CHARGES
6-(4-aminophenyl)amino-1H-pyrimidine-2,4-dione
@<TRIPOS>ATOM
      1 C1          2.0353    0.0356    0.9254 C.ar      1 <0>        -0.1664
      2 C2          2.0191    1.4160    0.9043 C.ar      1 <0>        -0.1137
      3 C3          1.1740    2.0872    0.0303 C.ar      1 <0>         0.0648
      4 C4          0.3451    1.3701   -0.8224 C.ar      1 <0>        -0.0787
      5 C5          0.3613   -0.0103   -0.8015 C.ar      1 <0>        -0.1694
      6 C6          1.2064   -0.6817    0.0725 C.ar      1 <0>         0.2136
      7 N1          1.2225   -2.0806    0.0941 N.pl3     1 <0>        -0.8741
      8 N2          1.1573    3.4877    0.0093 N.pl3     1 <0>        -0.6491
      9 C7          2.3326    4.1894    0.1054 C.2       1 <0>         0.4751
     10 C8          2.3156    5.5526    0.2102 C.2       1 <0>        -0.3944
     11 C9          3.5331    6.2436    0.3135 C.2       1 <0>         0.5658
     12 O1          3.5420    7.4586    0.4136 O.2       1 <0>        -0.5296
     13 N3          4.6921    5.5565    0.2951 N.am      1 <0>        -0.6672
     14 H1          5.5605    6.0476    0.3636 H         1 <0>         0.4376
     15 C10         4.6912    4.2155    0.1854 C.2       1 <0>         0.7140
     16 O2          5.7483    3.6152    0.1712 O.2       1 <0>        -0.5395
     17 N4          3.5377    3.5288    0.0916 N.am      1 <0>        -0.6553
     18 H2          3.5575    2.5322    0.0114 H         1 <0>         0.4397
     19 H3          2.6923   -0.4864    1.6053 H         1 <0>         0.1315
     20 H4          2.6604    1.9738    1.5706 H         1 <0>         0.1298
     21 H5         -0.3123    1.8922   -1.5018 H         1 <0>         0.1329
     22 H6         -0.2831   -0.5680   -1.4649 H         1 <0>         0.1308
     23 H7          1.8125   -2.5495    0.7048 H         1 <0>         0.4017
     24 H8          0.6435   -2.5816   -0.5015 H         1 <0>         0.4016
     25 H9          0.3149    3.9615   -0.0732 H         1 <0>         0.4328
     26 H10         1.3786    6.0896    0.2183 H         1 <0>         0.1658
@<TRIPOS>BOND
     1    1    6 ar
     2    1    2 ar
     3    1   19 1
     4    2    3 ar
     5    2   20 1
     6    3    4 ar
     7    3    8 1
     8    4    5 ar
     9    4   21 1
    10    5    6 ar
    11    5   22 1
    12    6    7 1
    13    7   23 1
    14    7   24 1
    15    8    9 1
    16    8   25 1
    17    9   17 1
    18    9   10 2
    19   10   11 1
    20   10   26 1
    21   11   12 2
    22   11   13 am
    23   13   14 1
    24   13   15 am
    25   15   16 2
    26   15   17 am
    27   17   18 1
@<TRIPOS>MOLECULE
ZINC20420537
   31    31     0     0     0
SMALL
USER_CHARGES
(2R)-2-(4-amino-3,5-dimethyl-pyrazol-1-yl)-N-carbamoyl-propanamide
@<TRIPOS>ATOM
      1 C1          1.6519    3.2692    0.0038 C.3       1 <0>        -0.0682
      2 C2          1.2193    1.8256    0.0002 C.2       1 <0>         0.0325
      3 C3          2.0729    0.7132   -0.0139 C.2       1 <0>         0.0863
      4 C4          1.3017   -0.4034   -0.0125 C.2       1 <0>        -0.0190
      5 N1          0.0021   -0.0041    0.0020 N.pl3     1 <0>        -0.3635
      6 N2         -0.0169    1.3965    0.0097 N.2       1 <0>        -0.2489
      7 C5         -1.1702   -0.8827    0.0081 C.3       1 <0>         0.1601
      8 H1         -0.8065   -1.9208    0.0126 H         1 <0>         0.1290
      9 C6         -2.0226   -0.6042   -1.2316 C.3       1 <0>        -0.1594
     10 C7         -1.9866   -0.6225    1.2478 C.2       1 <0>         0.5048
     11 O1         -1.6249    0.2141    2.0472 O.2       1 <0>        -0.4371
     12 N3         -3.1187   -1.3199    1.4678 N.am      1 <0>        -0.7038
     13 C8         -3.8488   -1.0872    2.5765 C.2       1 <0>         0.6984
     14 O2         -3.4862   -0.2485    3.3780 O.2       1 <0>        -0.5422
     15 N4         -4.9810   -1.7845    2.7965 N.am      1 <0>        -0.8824
     16 C9          1.7959   -1.8270   -0.0249 C.3       1 <0>        -0.0781
     17 N5          3.4804    0.7485   -0.0272 N.pl3     1 <0>        -0.8925
     18 H2          2.7505    3.3228   -0.0064 H         1 <0>         0.0705
     19 H3          1.2690    3.7644    0.9083 H         1 <0>         0.0743
     20 H4          1.2519    3.7741   -0.8879 H         1 <0>         0.0732
     21 H5         -2.9028   -1.2639   -1.2271 H         1 <0>         0.0800
     22 H6         -1.4267   -0.7941   -2.1365 H         1 <0>         0.0801
     23 H7         -2.3510    0.4456   -1.2224 H         1 <0>         0.0796
     24 H8         -3.4468   -2.0790    0.7425 H         1 <0>         0.4304
     25 H9         -5.5769   -1.5946    3.7014 H         1 <0>         0.4438
     26 H10        -5.3092   -2.5436    2.0711 H         1 <0>         0.4162
     27 H11         0.9364   -2.5135   -0.0203 H         1 <0>         0.0623
     28 H12         2.4146   -2.0081    0.8664 H         1 <0>         0.0745
     29 H13         2.3974   -1.9984   -0.9298 H         1 <0>         0.0762
     30 H14         4.0540   -0.1900   -0.0377 H         1 <0>         0.4101
     31 H15         4.0064    1.7146   -0.0271 H         1 <0>         0.4129
@<TRIPOS>BOND
     1    1    2 1
     2    1   18 1
     3    1   19 1
     4    1   20 1
     5    2    6 2
     6    2    3 1
     7    3    4 2
     8    3   17 1
     9    4    5 1
    10    4   16 1
    11    5    6 1
    12    5    7 1
    13    7    8 1
    14    7    9 1
    15    7   10 1
    16    9   21 1
    17    9   22 1
    18    9   23 1
    19   10   11 2
    20   10   12 am
    21   12   13 am
    22   12   24 1
    23   13   14 2
    24   13   15 am
    25   15   25 1
    26   15   26 1
    27   16   27 1
    28   16   28 1
    29   16   29 1
    30   17   30 1
    31   17   31 1
@<TRIPOS>MOLECULE
ZINC38665051
   23    23     0     0     0
SMALL
USER_CHARGES

@<TRIPOS>ATOM
      1 C1         -0.0187    1.5258    0.0104 C.3       1 <0>         0.0807
      2 C2          0.0021   -0.0041    0.0020 C.3       1 <0>         0.3009
      3 C3          0.7437   -0.5114    1.2415 C.3       1 <0>         0.0839
      4 H1          0.2104   -0.1979    2.1389 H         1 <0>         0.0823
      5 C4          0.8127   -2.0409    1.1952 C.3       1 <0>         0.0753
      6 H2         -0.1959   -2.4527    1.2318 H         1 <0>         0.0853
      7 C5          1.4949   -2.4711   -0.1071 C.3       1 <0>         0.0292
      8 H3          1.4987   -3.5590   -0.1742 H         1 <0>         0.0807
      9 C6          0.7242   -1.8881   -1.2945 C.3       1 <0>         0.2283
     10 H4         -0.2888   -2.2903   -1.3032 H         1 <0>         0.0952
     11 O1          0.6709   -0.4651   -1.1736 O.3       1 <0>        -0.3629
     12 F1          1.3728   -2.2314   -2.4856 F         1 <0>        -0.1762
     13 O2          2.8392   -1.9868   -0.1246 O.3       1 <0>        -0.5176
     14 O3          1.5652   -2.5195    2.3117 O.3       1 <0>        -0.5440
     15 O4          2.0672    0.0272    1.2599 O.3       1 <0>        -0.4974
     16 F2         -1.3103   -0.4885    0.0125 F         1 <0>        -0.1965
     17 O5          1.3220    2.0204    0.0003 O.3       1 <0>        -0.5276
     18 H5         -0.5459    1.8868   -0.8726 H         1 <0>         0.0687
     19 H6         -0.5289    1.8773    0.9072 H         1 <0>         0.0768
     20 H7          3.3320   -2.2229   -0.9224 H         1 <0>         0.3805
     21 H8          1.6494   -3.4823    2.3457 H         1 <0>         0.3880
     22 H9          2.5955   -0.2533    2.0197 H         1 <0>         0.3841
     23 H10         1.3852    2.9853    0.0049 H         1 <0>         0.3824
@<TRIPOS>BOND
     1    1    2 1
     2    1   17 1
     3    1   18 1
     4    1   19 1
     5    2   11 1
     6    2    3 1
     7    2   16 1
     8    3    4 1
     9    3    5 1
    10    3   15 1
    11    5    6 1
    12    5    7 1
    13    5   14 1
    14    7    8 1
    15    7    9 1
    16    7   13 1
    17    9   10 1
    18    9   11 1
    19    9   12 1
    20   13   20 1
    21   14   21 1
    22   15   22 1
    23   17   23 1
@<TRIPOS>MOLECULE
ZINC41028351
   32    33     0     0     0
SMALL
USER_CHARGES

@<TRIPOS>ATOM
      1 C1         -0.7006    0.1619    1.2001 C.2       1 <0>        -0.3449
      2 C2          0.0023   -0.0038    0.0055 C.2       1 <0>         0.0219
      3 C3         -0.5252    0.5339   -1.1697 C.2       1 <0>        -0.3372
      4 C4         -1.7320    1.2191   -1.1259 C.2       1 <0>         0.4857
      5 N1         -2.3951    1.3671    0.0433 N.am      1 <0>        -0.6031
      6 C5         -1.9066    0.8499    1.1932 C.2       1 <0>         0.4852
      7 O1         -2.5857    1.0118    2.3358 O.2       1 <0>        -0.6612
      8 O2         -2.2429    1.7376   -2.2497 O.3       1 <0>        -0.6604
      9 C6          1.2919   -0.7407   -0.0147 C.2       1 <0>         0.5836
     10 O3          2.3379   -0.1316   -0.1163 O.2       1 <0>        -0.5220
     11 N2          1.3014   -2.0851    0.0797 N.am      1 <0>        -0.6095
     12 C7          0.0434   -2.8442    0.0836 C.3       1 <0>         0.0988
     13 C8          0.1100   -3.9147   -1.0101 C.3       1 <0>        -0.1331
     14 C9          1.3616   -4.7712   -0.8044 C.3       1 <0>        -0.1397
     15 C10         2.6083   -3.8903   -0.9141 C.3       1 <0>         0.0070
     16 H1          2.6294   -3.4099   -1.8923 H         1 <0>         0.1467
     17 C11         2.5701   -2.8200    0.1746 C.3       1 <0>         0.0932
     18 N3          3.8100   -4.7188   -0.7486 N.4       1 <0>        -0.6310
     19 H2         -0.3116   -0.2455    2.1216 H         1 <0>         0.1248
     20 H3          0.0014    0.4183   -2.1055 H         1 <0>         0.1247
     21 H4         -3.2371    1.8486    0.0565 H         1 <0>         0.4049
     22 H5         -0.0925   -3.3213    1.0542 H         1 <0>         0.0801
     23 H6         -0.7904   -2.1707   -0.1146 H         1 <0>         0.1131
     24 H7         -0.7764   -4.5467   -0.9551 H         1 <0>         0.1008
     25 H8          0.1547   -3.4340   -1.9874 H         1 <0>         0.0830
     26 H9          1.3281   -5.2319    0.1829 H         1 <0>         0.0901
     27 H10         1.3985   -5.5492   -1.5669 H         1 <0>         0.0901
     28 H11         3.4030   -2.1305    0.0364 H         1 <0>         0.1139
     29 H12         2.6449   -3.2951    1.1528 H         1 <0>         0.0872
     30 H13         3.8332   -5.4253   -1.4687 H         1 <0>         0.4369
     31 H14         4.6317   -4.1377   -0.8210 H         1 <0>         0.4377
     32 H15         3.7906   -5.1625    0.1574 H         1 <0>         0.4328
@<TRIPOS>BOND
     1    1    2 2
     2    1   19 1
     3    1    6 1
     4    2    3 1
     5    2    9 1
     6    3    4 2
     7    3   20 1
     8    4    5 1
     9    4    8 1
    10    5   21 1
    11    5    6 am
    12    6    7 2
    13    9   10 2
    14    9   11 am
    15   11   17 1
    16   11   12 1
    17   12   13 1
    18   12   22 1
    19   12   23 1
    20   13   14 1
    21   13   24 1
    22   13   25 1
    23   14   15 1
    24   14   26 1
    25   14   27 1
    26   15   16 1
    27   15   17 1
    28   15   18 1
    29   17   28 1
    30   17   29 1
    31   18   30 1
    32   18   31 1
    33   18   32 1
@<TRIPOS>MOLECULE
ZINC52834470
   26    26     0     0     0
SMALL
USER_CHARGES

@<TRIPOS>ATOM
      1 C1         -0.0885    1.4158   -0.3263 C.3       1 <0>        -0.1809
      2 C2          0.0307   -0.0627    0.0490 C.3       1 <0>         0.1908
      3 C3          0.6709   -0.8138   -1.1175 C.3       1 <0>        -0.1359
      4 C4          2.2172   -0.8345   -0.9615 C.3       1 <0>        -0.5627
      5 S1          2.3389   -1.0993    0.8621 S.o2      1 <0>         2.3717
      6 O1          3.4859   -0.4221    1.3571 O.2       1 <0>        -0.9306
      7 O2          2.1604   -2.4800    1.1468 O.2       1 <0>        -0.9224
      8 C5          0.8270   -0.1759    1.3636 C.3       1 <0>        -0.6123
      9 N1         -1.3146   -0.6000    0.2673 N.pl3     1 <0>        -0.7104
     10 C6         -2.1123   -0.0785    1.2654 C.2       1 <0>         0.6077
     11 N2         -3.3420   -0.4830    1.3932 N.2       1 <0>        -0.4821
     12 O3         -4.1605    0.0520    2.4173 O.3       1 <0>        -0.4225
     13 N3         -1.6054    0.8720    2.1278 N.pl3     1 <0>        -0.8831
     14 H1          0.9050    1.8628   -0.3622 H         1 <0>         0.0782
     15 H2         -0.5628    1.5055   -1.3036 H         1 <0>         0.0777
     16 H3         -0.6926    1.9324    0.4196 H         1 <0>         0.0755
     17 H4          0.2966   -1.8374   -1.1362 H         1 <0>         0.1015
     18 H5          0.4093   -0.3184   -2.0525 H         1 <0>         0.1147
     19 H6          2.6612   -1.6627   -1.5138 H         1 <0>         0.1489
     20 H7          2.6589    0.1177   -1.2551 H         1 <0>         0.1445
     21 H8          1.0877    0.8126    1.7418 H         1 <0>         0.1496
     22 H9          0.2626   -0.7373    2.1082 H         1 <0>         0.1529
     23 H10        -1.6447   -1.3223   -0.2897 H         1 <0>         0.4209
     24 H11        -5.0573   -0.3093    2.4332 H         1 <0>         0.3989
     25 H12        -0.6986    1.1967    2.0131 H         1 <0>         0.3948
     26 H13        -2.1559    1.2155    2.8488 H         1 <0>         0.4148
@<TRIPOS>BOND
     1    1    2 1
     2    1   14 1
     3    1   15 1
     4    1   16 1
     5    2    8 1
     6    2    3 1
     7    2    9 1
     8    3    4 1
     9    3   17 1
    10    3   18 1
    11    4    5 1
    12    4   19 1
    13    4   20 1
    14    5    6 2
    15    5    7 2
    16    5    8 1
    17    8   21 1
    18    8   22 1
    19    9   10 1
    20    9   23 1
    21   10   11 2
    22   10   13 1
    23   11   12 1
    24   12   24 1
    25   13   25 1
    26   13   26 1
@<TRIPOS>MOLECULE
ZINC19472643
   22    22     0     0     0
SMALL
USER_CHARGES
2-hydroxy-4-(sulfamoylamino)benzoic acid
@<TRIPOS>ATOM
      1 C1         -3.0413    1.1467    0.5951 C.ar      1 <0>        -0.2195
      2 C2         -4.2555    0.5755    0.8445 C.ar      1 <0>        -0.0129
      3 C3         -4.5751    0.1417    2.1359 C.ar      1 <0>        -0.1667
      4 C4         -3.6395    0.2913    3.1730 C.ar      1 <0>         0.2024
      5 C5         -2.4098    0.8667    2.9077 C.ar      1 <0>        -0.2485
      6 C6         -2.1078    1.2924    1.6196 C.ar      1 <0>         0.1848
      7 N1         -0.8720    1.8711    1.3534 N.pl3     1 <0>        -1.0651
      8 S1         -0.0172    1.4168    0.0098 S.o2      1 <0>         2.7413
      9 O1          0.0021   -0.0041    0.0020 O.2       1 <0>        -0.9615
     10 O2          1.1718    2.1948    0.0027 O.2       1 <0>        -1.0122
     11 N2         -0.8975    1.8855   -1.3122 N.pl3     1 <0>        -1.1721
     12 O3         -3.9401   -0.1267    4.4280 O.3       1 <0>        -0.4600
     13 C7         -5.8853   -0.4691    2.4062 C.2       1 <0>         0.4912
     14 O4         -6.1604   -0.8456    3.5288 O.co2     1 <0>        -0.6154
     15 O5         -6.7812   -0.6115    1.4091 O.co2     1 <0>        -0.7646
     16 H1         -2.8012    1.4840   -0.4023 H         1 <0>         0.1430
     17 H2         -4.9724    0.4620    0.0448 H         1 <0>         0.1415
     18 H3         -1.6858    0.9852    3.7002 H         1 <0>         0.1245
     19 H4         -0.4620    2.6307    2.0353 H         1 <0>         0.4464
     20 H5         -0.3614    1.6006   -2.2295 H         1 <0>         0.4105
     21 H6         -1.0361    2.9766   -1.2924 H         1 <0>         0.4070
     22 H7         -3.2053   -0.0082    5.2380 H         1 <0>         0.4059
@<TRIPOS>BOND
     1    1    6 ar
     2    1    2 ar
     3    1   16 1
     4    2    3 ar
     5    2   17 1
     6    3    4 ar
     7    3   13 1
     8    4    5 ar
     9    4   12 1
    10    5    6 ar
    11    5   18 1
    12    6    7 1
    13    7    8 1
    14    7   19 1
    15    8    9 2
    16    8   10 2
    17    8   11 1
    18   11   20 1
    19   11   21 1
    20   12   22 1
    21   13   14 2
    22   13   15 1
@<TRIPOS>MOLECULE
ZINC39083243
   25    25     0     0     0
SMALL
USER_CHARGES

@<TRIPOS>ATOM
      1 C1         -0.0187    1.5258    0.0104 C.3       1 <0>        -0.1128
      2 C2          0.0021   -0.0041    0.0020 C.3       1 <0>        -0.1278
      3 C3         -1.4340   -0.5665    0.1449 C.3       1 <0>        -0.1065
      4 C4         -1.6888   -0.4701    1.6696 C.3       1 <0>        -0.1152
      5 C5         -0.3313   -0.8371    2.3039 C.3       1 <0>        -0.0245
      6 C6          0.7438   -0.5408    1.2436 C.3       1 <0>        -0.0923
      7 C7         -0.0910    0.0033    3.5315 C.2       1 <0>         0.5045
      8 O1          0.0846   -0.5327    4.6124 O.co2     1 <0>        -0.6896
      9 O2         -0.0722    1.2192    3.4438 O.co2     1 <0>        -0.6317
     10 N1         -0.3100   -2.2628    2.6573 N.4       1 <0>        -0.6063
     11 C8          0.6483   -0.5146   -1.2600 C.2       1 <0>         0.5040
     12 O3          1.0747    0.2724   -2.0880 O.co2     1 <0>        -0.6854
     13 O4          0.7448   -1.7145   -1.4532 O.co2     1 <0>        -0.7058
     14 H1          1.0039    1.9031    0.0027 H         1 <0>         0.0494
     15 H2         -0.5459    1.8868   -0.8726 H         1 <0>         0.0478
     16 H3         -0.5289    1.8773    0.9072 H         1 <0>         0.0521
     17 H4         -2.1462    0.0485   -0.4054 H         1 <0>         0.0704
     18 H5         -1.4779   -1.6030   -0.1894 H         1 <0>         0.0710
     19 H6         -1.9766    0.5445    1.9449 H         1 <0>         0.1037
     20 H7         -2.4567   -1.1813    1.9738 H         1 <0>         0.0661
     21 H8          1.2813   -1.4549    0.9913 H         1 <0>         0.0750
     22 H9          1.4393    0.2109    1.6170 H         1 <0>         0.0875
     23 H10        -0.4722   -2.8169    1.8298 H         1 <0>         0.4177
     24 H11         0.5894   -2.4988    3.0491 H         1 <0>         0.4267
     25 H12        -1.0325   -2.4520    3.3357 H         1 <0>         0.4219
@<TRIPOS>BOND
     1    1    2 1
     2    1   14 1
     3    1   15 1
     4    1   16 1
     5    2    6 1
     6    2    3 1
     7    2   11 1
     8    3    4 1
     9    3   17 1
    10    3   18 1
    11    4    5 1
    12    4   19 1
    13    4   20 1
    14    5    6 1
    15    5    7 1
    16    5   10 1
    17    6   21 1
    18    6   22 1
    19    7    8 2
    20    7    9 1
    21   10   23 1
    22   10   24 1
    23   10   25 1
    24   11   12 2
    25   11   13 1
@<TRIPOS>MOLECULE
ZINC41034712
   29    29     0     0     0
SMALL
USER_CHARGES

@<TRIPOS>ATOM
      1 C1         -0.0187    1.5258    0.0104 C.3       1 <0>        -0.1446
      2 C2          0.0021   -0.0041    0.0020 C.3       1 <0>        -0.0920
      3 H1          0.5123   -0.3556   -0.8948 H         1 <0>         0.0625
      4 C3         -1.4333   -0.5336    0.0129 C.3       1 <0>        -0.1093
      5 C4         -1.4126   -2.0635    0.0045 C.3       1 <0>        -0.1128
      6 C5         -0.6726   -2.5703    1.2440 C.3       1 <0>        -0.1137
      7 C6          0.7628   -2.0407    1.2331 C.3       1 <0>         0.1279
      8 C7          0.7421   -0.5109    1.2415 C.3       1 <0>        -0.0978
      9 C8          1.4917   -2.5400    2.4540 C.2       1 <0>         0.4997
     10 O1          2.4913   -3.2267    2.3289 O.co2     1 <0>        -0.6753
     11 O2          1.0818   -2.2571    3.5669 O.co2     1 <0>        -0.7039
     12 N1          1.4485   -2.5132    0.0278 N.am      1 <0>        -0.7158
     13 C9          1.5876   -3.8353   -0.1939 C.2       1 <0>         0.7116
     14 O3          1.1439   -4.6359    0.6064 O.2       1 <0>        -0.5743
     15 N2          2.2184   -4.2700   -1.3028 N.am      1 <0>        -0.8816
     16 H2          1.0039    1.9031    0.0027 H         1 <0>         0.0516
     17 H3         -0.5459    1.8868   -0.8726 H         1 <0>         0.0484
     18 H4         -0.5289    1.8773    0.9072 H         1 <0>         0.0540
     19 H5         -1.9435   -0.1821    0.9097 H         1 <0>         0.0602
     20 H6         -1.9605   -0.1726   -0.8702 H         1 <0>         0.0516
     21 H7         -2.4352   -2.4408    0.0122 H         1 <0>         0.0510
     22 H8         -0.9024   -2.4150   -0.8923 H         1 <0>         0.0541
     23 H9         -1.1828   -2.2188    2.1408 H         1 <0>         0.0667
     24 H10        -0.6578   -3.6602    1.2380 H         1 <0>         0.0771
     25 H11         1.7647   -0.1336    1.2338 H         1 <0>         0.0571
     26 H12         0.2319   -0.1594    2.1383 H         1 <0>         0.0799
     27 H13         1.8025   -1.8745   -0.6107 H         1 <0>         0.3782
     28 H14         2.5724   -3.6312   -1.9413 H         1 <0>         0.3851
     29 H15         2.3185   -5.2215   -1.4624 H         1 <0>         0.4044
@<TRIPOS>BOND
     1    1    2 1
     2    1   16 1
     3    1   17 1
     4    1   18 1
     5    2    3 1
     6    2    8 1
     7    2    4 1
     8    4    5 1
     9    4   19 1
    10    4   20 1
    11    5    6 1
    12    5   21 1
    13    5   22 1
    14    6    7 1
    15    6   23 1
    16    6   24 1
    17    7    8 1
    18    7    9 1
    19    7   12 1
    20    8   25 1
    21    8   26 1
    22    9   10 2
    23    9   11 1
    24   12   13 am
    25   12   27 1
    26   13   14 2
    27   13   15 am
    28   15   28 1
    29   15   29 1
@<TRIPOS>MOLECULE
ZINC44925114
   26    27     0     0     0
SMALL
USER_CHARGES

@<TRIPOS>ATOM
      1 C1         -0.0187    1.5258    0.0104 C.3       1 <0>        -0.1613
      2 C2          0.0021   -0.0041    0.0020 C.3       1 <0>         0.2663
      3 H1         -1.0205   -0.3814    0.0098 H         1 <0>         0.0874
      4 C3          0.7074   -0.4901   -1.2379 C.2       1 <0>         0.0445
      5 N1          0.1410   -1.0148   -2.3147 N.2       1 <0>        -0.3798
      6 N2          1.0812   -1.3010   -3.1494 N.2       1 <0>        -0.1952
      7 N3          2.2144   -0.9739   -2.6329 N.2       1 <0>        -0.1955
      8 N4          2.0130   -0.4696   -1.4634 N.2       1 <0>        -0.3804
      9 N5          0.7106   -0.4894    1.1889 N.pl3     1 <0>        -0.7266
     10 C4          0.0239   -0.6394    2.4037 C.ar      1 <0>         0.1234
     11 C5         -1.2241   -0.0526    2.5737 C.ar      1 <0>         0.0891
     12 C6         -1.9003   -0.2007    3.7710 C.ar      1 <0>        -0.1922
     13 C7         -1.3322   -0.9353    4.8033 C.ar      1 <0>         0.2029
     14 C8         -0.0851   -1.5220    4.6340 C.ar      1 <0>        -0.1930
     15 C9          0.5893   -1.3796    3.4348 C.ar      1 <0>         0.0882
     16 F1          1.8002   -1.9551    3.2682 F         1 <0>        -0.1330
     17 N6         -2.0166   -1.0842    6.0152 N.pl3     1 <0>        -0.8788
     18 F2         -1.7766    0.6630    1.5697 F         1 <0>        -0.1230
     19 H2          1.0039    1.9031    0.0027 H         1 <0>         0.0539
     20 H3         -0.5459    1.8868   -0.8726 H         1 <0>         0.0583
     21 H4         -0.5289    1.8773    0.9072 H         1 <0>         0.0692
     22 H5          1.6544   -0.7070    1.1351 H         1 <0>         0.4098
     23 H6         -2.8703    0.2554    3.9033 H         1 <0>         0.1356
     24 H7          0.3565   -2.0929    5.4373 H         1 <0>         0.1348
     25 H8         -2.8877   -0.6742    6.1338 H         1 <0>         0.3978
     26 H9         -1.6199   -1.5973    6.7364 H         1 <0>         0.3976
@<TRIPOS>BOND
     1    1    2 1
     2    1   19 1
     3    1   20 1
     4    1   21 1
     5    2    3 1
     6    2    4 1
     7    2    9 1
     8    4    5 1
     9    4    8 2
    10    5    6 1
    11    6    7 2
    12    7    8 1
    13    9   10 1
    14    9   22 1
    15   10   15 ar
    16   10   11 ar
    17   11   12 ar
    18   11   18 1
    19   12   13 ar
    20   12   23 1
    21   13   14 ar
    22   13   17 1
    23   14   15 ar
    24   14   24 1
    25   15   16 1
    26   17   25 1
    27   17   26 1
@<TRIPOS>MOLECULE
ZINC05210229
   23    23     0     0     0
SMALL
USER_CHARGES

@<TRIPOS>ATOM
      1 C1         -0.0173    1.4248    0.0099 C.3       1 <0>         0.0273
      2 O1          0.0021   -0.0041    0.0020 O.3       1 <0>        -0.3433
      3 C2         -1.2953   -0.6030    0.0112 C.3       1 <0>         0.3104
      4 H1         -1.8866   -0.2203   -0.8207 H         1 <0>         0.0695
      5 C3         -1.1692   -2.1100   -0.0950 C.2       1 <0>         0.2464
      6 C4         -2.3198   -2.9106    0.3499 C.2       1 <0>        -0.2399
      7 C5         -3.3117   -2.3072    1.0249 C.2       1 <0>         0.1691
      8 O2         -4.3666   -3.0446    1.4419 O.3       1 <0>        -0.7189
      9 C6         -3.2830   -0.8367    1.3294 C.3       1 <0>         0.1174
     10 H2         -3.9132   -0.3109    0.6121 H         1 <0>         0.0661
     11 O3         -1.9562   -0.3184    1.2523 O.3       1 <0>        -0.3910
     12 C7         -3.8291   -0.6060    2.7399 C.3       1 <0>         0.1003
     13 O4         -3.9142    0.7977    2.9941 O.3       1 <0>        -0.5747
     14 O5         -2.3789   -4.2449    0.0809 O.3       1 <0>        -0.5036
     15 N1         -0.0922   -2.6696   -0.5590 N.2       1 <0>        -0.7141
     16 H3          1.0053    1.8021    0.0021 H         1 <0>         0.0833
     17 H4         -0.5445    1.7859   -0.8732 H         1 <0>         0.0373
     18 H5         -0.5275    1.7763    0.9067 H         1 <0>         0.0514
     19 H6         -4.8206   -1.0510    2.8230 H         1 <0>         0.0750
     20 H7         -3.1617   -1.0672    3.4679 H         1 <0>         0.0494
     21 H8         -4.2534    1.0186    3.8723 H         1 <0>         0.3712
     22 H9         -3.1754   -4.6788    0.4160 H         1 <0>         0.3819
     23 H10        -0.0345   -3.6361   -0.6175 H         1 <0>         0.3295
@<TRIPOS>BOND
     1    1    2 1
     2    1   16 1
     3    1   17 1
     4    1   18 1
     5    2    3 1
     6    3    4 1
     7    3   11 1
     8    3    5 1
     9    5    6 1
    10    5   15 2
    11    6    7 2
    12    6   14 1
    13    7    8 1
    14    7    9 1
    15    9   10 1
    16    9   11 1
    17    9   12 1
    18   12   13 1
    19   12   19 1
    20   12   20 1
    21   13   21 1
    22   14   22 1
    23   15   23 1
@<TRIPOS>MOLECULE
ZINC06166573
   41    43     0     0     0
SMALL
USER_CHARGES
N-[(5-bromo-2-hydroxy-phenyl)methyleneamino]-2-(7,8-dimethyl-5-oxo-9-thia-2,4-diazabicyclo[4.3.0]nona-2,7,10-trien-4-yl)-acetamide
@<TRIPOS>ATOM
      1 C1         -6.4235    3.7235   -5.9223 C.3       1 <0>        -0.1047
      2 C2         -7.2251    4.0280   -4.6830 C.2       1 <0>        -0.0616
      3 C3         -8.2835    4.8518   -4.7440 C.2       1 <0>        -0.1628
      4 S1         -8.8762    4.8877   -3.0629 S.3       1 <0>         0.1426
      5 C4         -7.6858    3.7960   -2.3284 C.2       1 <0>         0.1004
      6 C5         -6.8619    3.4347   -3.4097 C.2       1 <0>        -0.2357
      7 C6         -5.7891    2.5371   -3.0978 C.2       1 <0>         0.5607
      8 O1         -5.0206    2.1650   -3.9676 O.2       1 <0>        -0.5163
      9 N1         -5.6440    2.1110   -1.8293 N.am      1 <0>        -0.5163
     10 C7         -6.4938    2.5105   -0.8485 C.2       1 <0>         0.3924
     11 N2         -7.4780    3.3316   -1.0998 N.2       1 <0>        -0.4840
     12 C8         -4.5505    1.1929   -1.5013 C.3       1 <0>         0.0760
     13 C9         -3.3285    1.9852   -1.1140 C.2       1 <0>         0.5143
     14 O2         -3.3672    3.1978   -1.1120 O.2       1 <0>        -0.4819
     15 N3         -2.1926    1.3467   -0.7697 N.am      1 <0>        -0.5887
     16 N4         -1.0566    2.0833   -0.4096 N.2       1 <0>        -0.2135
     17 C10         0.0001    1.4722    0.0317 C.2       1 <0>         0.1269
     18 C11        -0.0627    0.0374    0.3627 C.ar      1 <0>        -0.1262
     19 C12        -1.2713   -0.5394    0.7594 C.ar      1 <0>        -0.0885
     20 C13        -1.3242   -1.8843    1.0633 C.ar      1 <0>        -0.0982
     21 C14        -0.1808   -2.6627    0.9866 C.ar      1 <0>        -0.0569
     22 C15         1.0217   -2.1019    0.6004 C.ar      1 <0>        -0.1358
     23 C16         1.0911   -0.7544    0.2867 C.ar      1 <0>         0.1602
     24 O3          2.2727   -0.2028   -0.0934 O.3       1 <0>        -0.4878
     25 Br1        -2.9622   -2.6664    1.5934 Br        1 <0>        -0.0322
     26 C17        -8.8381    5.5727   -5.9456 C.3       1 <0>        -0.0658
     27 H1         -6.8421    2.8488   -6.4199 H         1 <0>         0.0720
     28 H2         -6.4602    4.5782   -6.5978 H         1 <0>         0.0674
     29 H3         -5.3884    3.5235   -5.6454 H         1 <0>         0.0821
     30 H4         -6.3510    2.1461    0.1581 H         1 <0>         0.2159
     31 H5         -4.3225    0.5746   -2.3695 H         1 <0>         0.1399
     32 H6         -4.8488    0.5551   -0.6693 H         1 <0>         0.1356
     33 H7         -2.1617    0.3772   -0.7712 H         1 <0>         0.3931
     34 H8          0.9266    2.0140    0.1520 H         1 <0>         0.1944
     35 H9         -2.1638    0.0653    0.8242 H         1 <0>         0.1447
     36 H10        -0.2296   -3.7139    1.2297 H         1 <0>         0.1452
     37 H11         1.9089   -2.7151    0.5433 H         1 <0>         0.1481
     38 H12         2.8326    0.0749    0.6445 H         1 <0>         0.4028
     39 H13        -9.7057    6.1615   -5.6476 H         1 <0>         0.0756
     40 H14        -8.0749    6.2330   -6.3574 H         1 <0>         0.0834
     41 H15        -9.1349    4.8450   -6.7008 H         1 <0>         0.0831
@<TRIPOS>BOND
     1    1    2 1
     2    1   27 1
     3    1   28 1
     4    1   29 1
     5    2    6 1
     6    2    3 2
     7    3    4 1
     8    3   26 1
     9    4    5 1
    10    5   11 1
    11    5    6 2
    12    6    7 1
    13    7    8 2
    14    7    9 am
    15    9   10 1
    16    9   12 1
    17   10   11 2
    18   10   30 1
    19   12   13 1
    20   12   31 1
    21   12   32 1
    22   13   14 2
    23   13   15 am
    24   15   16 1
    25   15   33 1
    26   16   17 2
    27   17   18 1
    28   17   34 1
    29   18   23 ar
    30   18   19 ar
    31   19   20 ar
    32   19   35 1
    33   20   21 ar
    34   20   25 1
    35   21   22 ar
    36   21   36 1
    37   22   23 ar
    38   22   37 1
    39   23   24 1
    40   24   38 1
    41   26   39 1
    42   26   40 1
    43   26   41 1
@<TRIPOS>MOLECULE
ZINC13567689
   53    57     0     0     0
SMALL
USER_CHARGES
(4R)-2-amino-1-(3-chloro-2-methyl-phenyl)-1'-methyl-2',5-dioxo-spiro[7,8-dihydro-6H-quinoline-4,3'-indoline]-3-carbonitrile
@<TRIPOS>ATOM
      1 C1         -3.2296    0.8747   -0.3016 C.3       1 <0>        -0.1299
      2 C2         -2.8962    0.7525    1.1630 C.ar      1 <0>        -0.0647
      3 C3         -1.8074   -0.0092    1.5670 C.ar      1 <0>         0.1024
      4 C4         -1.5065   -0.1237    2.9179 C.ar      1 <0>        -0.0872
      5 C5         -2.2837    0.5286    3.8553 C.ar      1 <0>        -0.1001
      6 C6         -3.3668    1.2867    3.4510 C.ar      1 <0>        -0.0845
      7 C7         -3.6732    1.3985    2.1057 C.ar      1 <0>        -0.0327
      8 Cl1        -5.0343    2.3514    1.6025 Cl        1 <0>        -0.0477
      9 N1         -1.0182   -0.6648    0.6148 N.pl3     1 <0>        -0.4860
     10 C8          0.0904   -0.0402    0.1065 C.2       1 <0>         0.2392
     11 C9          1.0716   -0.7554   -0.4848 C.2       1 <0>        -0.2448
     12 C10         2.2135   -0.1244   -1.0084 C.2       1 <0>         0.4003
     13 O1          3.0716   -0.7954   -1.5470 O.2       1 <0>        -0.4554
     14 C11         2.3928    1.3661   -0.9137 C.3       1 <0>        -0.1559
     15 C12         1.6516    1.8795    0.3247 C.3       1 <0>        -0.1109
     16 C13         0.1834    1.4615    0.2203 C.3       1 <0>        -0.0984
     17 C14         0.9701   -2.2540   -0.6000 C.3       1 <0>         0.1083
     18 C15         1.9037   -2.9208    0.3633 C.ar      1 <0>        -0.1344
     19 C16         1.9583   -2.9023    1.7403 C.ar      1 <0>        -0.0483
     20 C17         2.9692   -3.6448    2.3411 C.ar      1 <0>        -0.1540
     21 C18         3.8742   -4.3665    1.5897 C.ar      1 <0>        -0.0813
     22 C19         3.8256   -4.3894    0.2047 C.ar      1 <0>        -0.1464
     23 C20         2.8157   -3.6476   -0.4108 C.ar      1 <0>         0.1698
     24 N2          2.5352   -3.4923   -1.7564 N.am      1 <0>        -0.5432
     25 C21         1.4692   -2.6924   -1.9626 C.2       1 <0>         0.5500
     26 O2          0.9983   -2.3820   -3.0364 O.2       1 <0>        -0.4934
     27 C22         3.3052   -4.1234   -2.8312 C.3       1 <0>         0.0828
     28 C23        -0.4373   -2.7286   -0.3954 C.2       1 <0>        -0.2307
     29 C24        -1.3636   -1.9309    0.1984 C.2       1 <0>         0.4943
     30 N3         -2.6461   -2.3887    0.3838 N.pl3     1 <0>        -0.8450
     31 C25        -0.8105   -4.0405   -0.8314 C.1       1 <0>         0.2679
     32 N4         -1.1066   -5.0813   -1.1772 N.1       1 <0>        -0.4359
     33 H1         -3.9852    0.1347   -0.5652 H         1 <0>         0.0827
     34 H2         -3.6137    1.8744   -0.5046 H         1 <0>         0.0857
     35 H3         -2.3310    0.7034   -0.8943 H         1 <0>         0.0744
     36 H4         -0.6630   -0.7189    3.2351 H         1 <0>         0.1407
     37 H5         -2.0475    0.4427    4.9056 H         1 <0>         0.1460
     38 H6         -3.9752    1.7923    4.1862 H         1 <0>         0.1440
     39 H7          3.3666    1.5806   -0.8384 H         1 <0>         0.0905
     40 H8          1.9838    1.8402   -1.8059 H         1 <0>         0.1033
     41 H9          1.7208    2.9664    0.3687 H         1 <0>         0.0915
     42 H10         2.0933    1.4449    1.2215 H         1 <0>         0.0790
     43 H11        -0.2626    1.9205   -0.6621 H         1 <0>         0.1056
     44 H12        -0.3521    1.7918    1.1103 H         1 <0>         0.0950
     45 H13         1.2488   -2.3366    2.3260 H         1 <0>         0.1256
     46 H14         3.0473   -3.6573    3.4182 H         1 <0>         0.1230
     47 H15         4.6433   -4.9308    2.0962 H         1 <0>         0.1248
     48 H16         4.5388   -4.9576   -0.3741 H         1 <0>         0.1314
     49 H17         2.8748   -5.0977   -3.0627 H         1 <0>         0.0628
     50 H18         3.2740   -3.4922   -3.7194 H         1 <0>         0.0827
     51 H19         4.3395   -4.2497   -2.5114 H         1 <0>         0.0792
     52 H20        -2.8898   -3.2807    0.0908 H         1 <0>         0.4217
     53 H21        -3.3077   -1.8198    0.8076 H         1 <0>         0.4061
@<TRIPOS>BOND
     1    1    2 1
     2    1   33 1
     3    1   34 1
     4    1   35 1
     5    2    7 ar
     6    2    3 ar
     7    3    4 ar
     8    3    9 1
     9    4    5 ar
    10    4   36 1
    11    5    6 ar
    12    5   37 1
    13    6    7 ar
    14    6   38 1
    15    7    8 1
    16    9   29 1
    17    9   10 1
    18   10   16 1
    19   10   11 2
    20   11   12 1
    21   11   17 1
    22   12   13 2
    23   12   14 1
    24   14   15 1
    25   14   39 1
    26   14   40 1
    27   15   16 1
    28   15   41 1
    29   15   42 1
    30   16   43 1
    31   16   44 1
    32   17   25 1
    33   17   18 1
    34   17   28 1
    35   18   23 ar
    36   18   19 ar
    37   19   20 ar
    38   19   45 1
    39   20   21 ar
    40   20   46 1
    41   21   22 ar
    42   21   47 1
    43   22   23 ar
    44   22   48 1
    45   23   24 1
    46   24   25 am
    47   24   27 1
    48   25   26 2
    49   27   49 1
    50   27   50 1
    51   27   51 1
    52   28   29 2
    53   28   31 1
    54   29   30 1
    55   30   52 1
    56   30   53 1
    57   31   32 3
@<TRIPOS>MOLECULE
ZINC16779326
   54    58     0     0     0
SMALL
USER_CHARGES
(5S)-2-allylsulfanyl-5-(1,3-benzodioxol-5-yl)-8,8-dimethyl-5,7,9,10-tetrahydro-3H-pyrimido[6,5-b]quinoline-4,6-dione
@<TRIPOS>ATOM
      1 C1          5.7782   -0.0731   -3.1595 C.3       1 <0>        -0.1531
      2 C2          6.6432   -0.3499   -1.9282 C.3       1 <0>        -0.0533
      3 C3          5.8055   -1.0546   -0.8593 C.3       1 <0>        -0.0885
      4 C4          4.6612   -0.1623   -0.4427 C.2       1 <0>         0.2257
      5 C5          4.7869    1.1813   -0.4598 C.2       1 <0>        -0.2661
      6 C6          3.6576    2.0773   -0.0178 C.3       1 <0>         0.1011
      7 H1          3.5885    2.9263   -0.6979 H         1 <0>         0.0981
      8 C7          2.3495    1.3440   -0.0133 C.2       1 <0>        -0.2981
      9 C8          1.1418    2.0512    0.0022 C.2       1 <0>         0.5469
     10 O1          1.1360    3.2720    0.0085 O.2       1 <0>        -0.5166
     11 N1         -0.0164    1.3580    0.0095 N.am      1 <0>        -0.6205
     12 H2         -0.8634    1.8306    0.0161 H         1 <0>         0.4236
     13 C9          0.0021   -0.0041    0.0020 C.2       1 <0>         0.3974
     14 N2          1.1362   -0.6745   -0.0134 N.2       1 <0>        -0.5621
     15 C10         2.3132   -0.0396   -0.0222 C.2       1 <0>         0.4274
     16 N3          3.4944   -0.7546   -0.0427 N.pl3     1 <0>        -0.6224
     17 S1         -1.5223   -0.8876    0.0138 S.3       1 <0>         0.0162
     18 C11        -0.9006   -2.5874   -0.0020 C.3       1 <0>        -0.0703
     19 C12        -2.0623   -3.5473    0.0054 C.2       1 <0>        -0.1650
     20 C13        -2.2730   -4.3286   -1.0247 C.2       1 <0>        -0.1459
     21 C14         3.9435    2.5817    1.3732 C.ar      1 <0>        -0.0520
     22 C15         4.0941    1.6851    2.4147 C.ar      1 <0>        -0.1031
     23 C16         4.3570    2.1429    3.6923 C.ar      1 <0>        -0.1034
     24 C17         4.4697    3.5028    3.9320 C.ar      1 <0>         0.0262
     25 C18         4.3180    4.4060    2.8829 C.ar      1 <0>         0.0327
     26 C19         4.0604    3.9397    1.6039 C.ar      1 <0>        -0.0679
     27 O2          4.4726    5.6714    3.3708 O.3       1 <0>        -0.3075
     28 C20         4.3145    5.5554    4.7973 C.3       1 <0>         0.2130
     29 O3          4.7194    4.2023    5.0773 O.3       1 <0>        -0.3107
     30 C21         5.9798    1.7912   -0.8871 C.2       1 <0>         0.4027
     31 O4          6.0635    3.0034   -0.8819 O.2       1 <0>        -0.4593
     32 C22         7.1542    0.9737   -1.3497 C.3       1 <0>        -0.1500
     33 C23         7.8303   -1.2315   -2.3214 C.3       1 <0>        -0.1421
     34 H3          6.3726    0.4452   -3.9120 H         1 <0>         0.0645
     35 H4          5.4163   -1.0163   -3.5687 H         1 <0>         0.0616
     36 H5          4.9296    0.5490   -2.8750 H         1 <0>         0.0591
     37 H6          6.4306   -1.2715    0.0069 H         1 <0>         0.1035
     38 H7          5.4104   -1.9865   -1.2637 H         1 <0>         0.0936
     39 H8          3.4971   -1.6857    0.2293 H         1 <0>         0.4219
     40 H9         -0.3029   -2.7473   -0.8994 H         1 <0>         0.1068
     41 H10        -0.2836   -2.7568    0.8804 H         1 <0>         0.1122
     42 H11        -2.7211   -3.5911    0.8601 H         1 <0>         0.1231
     43 H12        -3.1055   -5.0166   -1.0194 H         1 <0>         0.1102
     44 H13        -1.6142   -4.2848   -1.8794 H         1 <0>         0.1030
     45 H14         4.0066    0.6247    2.2297 H         1 <0>         0.1241
     46 H15         4.4741    1.4402    4.5041 H         1 <0>         0.1321
     47 H16         3.9467    4.6376    0.7876 H         1 <0>         0.1365
     48 H17         3.2735    5.7102    5.0810 H         1 <0>         0.0826
     49 H18         4.9610    6.2637    5.3154 H         1 <0>         0.1314
     50 H19         7.6576    1.4733   -2.0547 H         1 <0>         0.0891
     51 H20         7.8137    0.7725   -0.5055 H         1 <0>         0.1021
     52 H21         8.4405   -1.4331   -1.4410 H         1 <0>         0.0620
     53 H22         7.4638   -2.1722   -2.7325 H         1 <0>         0.0624
     54 H23         8.4321   -0.7175   -3.0708 H         1 <0>         0.0652
@<TRIPOS>BOND
     1    1    2 1
     2    1   34 1
     3    1   35 1
     4    1   36 1
     5    2   32 1
     6    2    3 1
     7    2   33 1
     8    3    4 1
     9    3   37 1
    10    3   38 1
    11    4   16 1
    12    4    5 2
    13    5    6 1
    14    5   30 1
    15    6    7 1
    16    6    8 1
    17    6   21 1
    18    8   15 2
    19    8    9 1
    20    9   10 2
    21    9   11 am
    22   11   12 1
    23   11   13 1
    24   13   14 2
    25   13   17 1
    26   14   15 1
    27   15   16 1
    28   16   39 1
    29   17   18 1
    30   18   19 1
    31   18   40 1
    32   18   41 1
    33   19   20 2
    34   19   42 1
    35   20   43 1
    36   20   44 1
    37   21   26 ar
    38   21   22 ar
    39   22   23 ar
    40   22   45 1
    41   23   24 ar
    42   23   46 1
    43   24   29 1
    44   24   25 ar
    45   25   26 ar
    46   25   27 1
    47   26   47 1
    48   27   28 1
    49   28   29 1
    50   28   48 1
    51   28   49 1
    52   30   31 2
    53   30   32 1
    54   32   50 1
    55   32   51 1
    56   33   52 1
    57   33   53 1
    58   33   54 1
@<TRIPOS>MOLECULE
ZINC31161085
   63    67     0     0     0
SMALL
USER_CHARGES
(3S,8aR)-3-[[7-(1,1-dimethylallyl)-2,2-dimethyl-8H-pyrano[3,2-f]indol-6-yl]methyl]-2,3,6,7,8,8a-hexahydropyrrolo[1,2-a]pyrazine-1,4-dione
@<TRIPOS>ATOM
      1 C1         -8.6015    7.2748   -6.6161 C.3       1 <0>        -0.1394
      2 C2         -7.5511    6.9814   -5.5430 C.3       1 <0>         0.1509
      3 C3         -7.1243    5.5411   -5.6469 C.2       1 <0>        -0.1973
      4 C4         -6.6935    4.8935   -4.5667 C.2       1 <0>        -0.0857
      5 C5         -6.6633    5.6260   -3.2816 C.ar      1 <0>        -0.1472
      6 C6         -5.9318    5.1554   -2.2036 C.ar      1 <0>        -0.0177
      7 C7         -5.9320    5.8786   -1.0104 C.ar      1 <0>        -0.1219
      8 C8         -6.6683    7.0741   -0.9065 C.ar      1 <0>         0.1297
      9 C9         -7.3991    7.5358   -1.9985 C.ar      1 <0>        -0.1648
     10 C10        -7.3999    6.8211   -3.1756 C.ar      1 <0>         0.1556
     11 O1         -8.1062    7.2495   -4.2550 O.3       1 <0>        -0.3071
     12 N1         -6.4783    7.5571    0.3692 N.pl3     1 <0>        -0.5963
     13 H1         -6.9606    8.4958    0.6794 H         1 <0>         0.4416
     14 C11        -5.6593    6.7123    1.0704 C.2       1 <0>         0.1181
     15 C12        -5.2906    5.6826    0.2934 C.2       1 <0>        -0.1598
     16 C13        -4.3927    4.5384    0.6880 C.3       1 <0>        -0.0586
     17 C14        -2.9643    4.8268    0.2220 C.3       1 <0>         0.1359
     18 H2         -2.6267    5.8167    0.5627 H         1 <0>         0.1265
     19 C15        -2.0370    3.7584    0.7537 C.2       1 <0>         0.5313
     20 O2         -1.4572    3.9043    1.8088 O.2       1 <0>        -0.5179
     21 N2         -1.8729    2.6407    0.0223 N.am      1 <0>        -0.6118
     22 C16        -1.0296    1.4768    0.3111 C.3       1 <0>         0.1018
     23 C17        -0.5768    0.9320   -1.0568 C.3       1 <0>        -0.1341
     24 C18        -1.5541    1.5324   -2.0860 C.3       1 <0>        -0.1134
     25 C19        -2.5394    2.3873   -1.2695 C.3       1 <0>         0.1144
     26 H3         -3.5146    1.8988   -1.1266 H         1 <0>         0.1158
     27 C20        -2.7420    3.7148   -1.9571 C.2       1 <0>         0.5106
     28 O3         -2.7417    3.7702   -3.1686 O.2       1 <0>        -0.5254
     29 N3         -2.9225    4.8369   -1.2392 N.am      1 <0>        -0.7226
     30 C21        -5.2331    6.9116    2.5020 C.3       1 <0>         0.0283
     31 C22        -3.7160    7.1009    2.5608 C.3       1 <0>        -0.1541
     32 C23        -5.9243    8.1519    3.0720 C.3       1 <0>        -0.1488
     33 C24        -5.6203    5.7028    3.3144 C.2       1 <0>        -0.1487
     34 C25        -4.7200    5.0829    4.0363 C.2       1 <0>        -0.1871
     35 C26        -6.3366    7.8846   -5.7669 C.3       1 <0>        -0.1722
     36 H4         -8.1775    7.0694   -7.6101 H         1 <0>         0.0804
     37 H5         -8.9012    8.3315   -6.5565 H         1 <0>         0.0690
     38 H6         -9.4809    6.6344   -6.4531 H         1 <0>         0.0676
     39 H7         -7.1688    5.0241   -6.6168 H         1 <0>         0.1319
     40 H8         -6.3731    3.8442   -4.6458 H         1 <0>         0.1319
     41 H9         -5.3675    4.2382   -2.2858 H         1 <0>         0.1211
     42 H10        -7.9651    8.4524   -1.9219 H         1 <0>         0.1279
     43 H11        -4.4052    4.4229    1.7818 H         1 <0>         0.0999
     44 H12        -4.7518    3.6113    0.2173 H         1 <0>         0.0753
     45 H13        -0.1683    1.7900    0.9194 H         1 <0>         0.0857
     46 H14        -1.6155    0.7275    0.8635 H         1 <0>         0.0749
     47 H15         0.4578    1.2496   -1.2537 H         1 <0>         0.0784
     48 H16        -0.6279   -0.1668   -1.0490 H         1 <0>         0.0870
     49 H17        -0.9949    2.1448   -2.8087 H         1 <0>         0.0889
     50 H18        -2.0721    0.7202   -2.6170 H         1 <0>         0.0921
     51 H19        -3.0407    5.7839   -1.7863 H         1 <0>         0.4327
     52 H20        -3.4049    7.2464    3.6058 H         1 <0>         0.0709
     53 H21        -3.4334    7.9832    1.9678 H         1 <0>         0.0611
     54 H22        -3.2191    6.2092    2.1510 H         1 <0>         0.0721
     55 H23        -5.6132    8.2973    4.1170 H         1 <0>         0.0706
     56 H24        -7.0150    8.0158    3.0297 H         1 <0>         0.0605
     57 H25        -5.6416    9.0342    2.4791 H         1 <0>         0.0606
     58 H26        -6.6590    5.3410    3.3012 H         1 <0>         0.1128
     59 H27        -5.0027    4.2006    4.6293 H         1 <0>         0.1032
     60 H28        -3.6813    5.4447    4.0495 H         1 <0>         0.1118
     61 H29        -5.5785    7.6770   -4.9974 H         1 <0>         0.0613
     62 H30        -6.6462    8.9381   -5.7019 H         1 <0>         0.0676
     63 H31        -5.9120    7.6879   -6.7624 H         1 <0>         0.0741
@<TRIPOS>BOND
     1    1    2 1
     2    1   36 1
     3    1   37 1
     4    1   38 1
     5    2   11 1
     6    2    3 1
     7    2   35 1
     8    3    4 2
     9    3   39 1
    10    4    5 1
    11    4   40 1
    12    5   10 ar
    13    5    6 ar
    14    6    7 ar
    15    6   41 1
    16    7   15 1
    17    7    8 ar
    18    8    9 ar
    19    8   12 1
    20    9   10 ar
    21    9   42 1
    22   10   11 1
    23   12   13 1
    24   12   14 1
    25   14   15 2
    26   14   30 1
    27   15   16 1
    28   16   17 1
    29   16   43 1
    30   16   44 1
    31   17   18 1
    32   17   29 1
    33   17   19 1
    34   19   20 2
    35   19   21 am
    36   21   25 1
    37   21   22 1
    38   22   23 1
    39   22   45 1
    40   22   46 1
    41   23   24 1
    42   23   47 1
    43   23   48 1
    44   24   25 1
    45   24   49 1
    46   24   50 1
    47   25   26 1
    48   25   27 1
    49   27   28 2
    50   27   29 am
    51   29   51 1
    52   30   31 1
    53   30   32 1
    54   30   33 1
    55   31   52 1
    56   31   53 1
    57   31   54 1
    58   32   55 1
    59   32   56 1
    60   32   57 1
    61   33   34 2
    62   33   58 1
    63   34   59 1
    64   34   60 1
    65   35   61 1
    66   35   62 1
    67   35   63 1
@<TRIPOS>MOLECULE
ZINC18200818
   53    58     0     0     0
SMALL
USER_CHARGES

@<TRIPOS>ATOM
      1 C1         -0.0184    1.5028    0.0103 C.3       1 <0>        -0.0676
      2 C2          0.0021   -0.0041    0.0020 C.2       1 <0>        -0.1506
      3 C3         -1.0392   -0.8719    0.0017 C.2       1 <0>        -0.1544
      4 C4         -0.7802   -2.2296   -0.0075 C.2       1 <0>        -0.1395
      5 C5          0.5074   -2.6532   -0.0160 C.2       1 <0>        -0.1117
      6 S1          1.4039   -1.1093   -0.0179 S.3       1 <0>         0.0101
      7 C6          1.0430   -4.0617   -0.0269 C.3       1 <0>         0.1647
      8 H1          0.2115   -4.7664   -0.0272 H         1 <0>         0.1064
      9 C7          1.8884   -4.2853    1.1955 C.2       1 <0>        -0.3463
     10 C8          3.2579   -4.3559    1.1404 C.2       1 <0>         0.4272
     11 N1          3.7239   -4.5581    2.4026 N.pl3     1 <0>        -0.4883
     12 H2          4.6549   -4.6444    2.6607 H         1 <0>         0.4446
     13 N2          2.6176   -4.6191    3.2656 N.am      1 <0>        -0.3493
     14 C9          1.4998   -4.4527    2.5250 C.2       1 <0>         0.5634
     15 O1          0.3550   -4.4498    2.9439 O.2       1 <0>        -0.5149
     16 C10         2.6647   -4.8170    4.6492 C.ar      1 <0>         0.1685
     17 C11         1.4883   -4.8627    5.3862 C.ar      1 <0>        -0.1388
     18 C12         1.5383   -5.0582    6.7524 C.ar      1 <0>        -0.0836
     19 C13         2.7579   -5.2084    7.3868 C.ar      1 <0>        -0.1388
     20 C14         3.9310   -5.1634    6.6559 C.ar      1 <0>        -0.0882
     21 C15         3.8877   -4.9739    5.2886 C.ar      1 <0>        -0.1629
     22 N3          3.9343   -4.2332   -0.0494 N.pl3     1 <0>        -0.6196
     23 C16         3.2283   -4.3459   -1.2251 C.2       1 <0>         0.2272
     24 C17         1.8829   -4.2723   -1.2685 C.2       1 <0>        -0.2558
     25 C18         1.1914   -4.3890   -2.4899 C.2       1 <0>         0.4029
     26 O2         -0.0228   -4.3405   -2.4918 O.2       1 <0>        -0.4480
     27 C19         1.9212   -4.5717   -3.7912 C.3       1 <0>        -0.1639
     28 C20         3.3084   -3.9306   -3.6753 C.3       1 <0>         0.0091
     29 H3          3.2050   -2.8577   -3.5131 H         1 <0>         0.1155
     30 C21         4.0317   -4.5652   -2.4869 C.3       1 <0>        -0.0919
     31 C22         4.0906   -4.1801   -4.9391 C.2       1 <0>        -0.0160
     32 C23         4.5870   -3.2344   -5.7566 C.2       1 <0>        -0.1950
     33 C24         5.2439   -3.9085   -6.8116 C.2       1 <0>        -0.2140
     34 C25         5.1095   -5.2260   -6.5756 C.2       1 <0>        -0.0341
     35 O3          4.4151   -5.3845   -5.4370 O.3       1 <0>        -0.1731
     36 H4          1.0042    1.8801    0.0026 H         1 <0>         0.0687
     37 H5         -0.5455    1.8639   -0.8728 H         1 <0>         0.0784
     38 H6         -0.5286    1.8543    0.9071 H         1 <0>         0.0779
     39 H7         -2.0560   -0.5079    0.0090 H         1 <0>         0.1294
     40 H8         -1.5916   -2.9424   -0.0076 H         1 <0>         0.1319
     41 H9          0.5355   -4.7451    4.8914 H         1 <0>         0.1597
     42 H10         0.6240   -5.0935    7.3261 H         1 <0>         0.1344
     43 H11         2.7943   -5.3608    8.4553 H         1 <0>         0.1283
     44 H12         4.8818   -5.2810    7.1544 H         1 <0>         0.1300
     45 H13         4.8040   -4.9433    4.7178 H         1 <0>         0.1179
     46 H14         4.8905   -4.0701   -0.0603 H         1 <0>         0.4228
     47 H15         2.0271   -5.6354   -4.0042 H         1 <0>         0.1090
     48 H16         1.3624   -4.0905   -4.5939 H         1 <0>         0.1056
     49 H17         5.0146   -4.1075   -2.3751 H         1 <0>         0.0977
     50 H18         4.1481   -5.6348   -2.6613 H         1 <0>         0.1109
     51 H19         4.5000   -2.1652   -5.6315 H         1 <0>         0.1498
     52 H20         5.7552   -3.4531   -7.6468 H         1 <0>         0.1498
     53 H21         5.4978   -6.0213   -7.1945 H         1 <0>         0.2044
@<TRIPOS>BOND
     1    1    2 1
     2    1   36 1
     3    1   37 1
     4    1   38 1
     5    2    6 1
     6    2    3 2
     7    3    4 1
     8    3   39 1
     9    4    5 2
    10    4   40 1
    11    5    6 1
    12    5    7 1
    13    7    8 1
    14    7   24 1
    15    7    9 1
    16    9   14 1
    17    9   10 2
    18   10   11 1
    19   10   22 1
    20   11   12 1
    21   11   13 1
    22   13   14 am
    23   13   16 1
    24   14   15 2
    25   16   21 ar
    26   16   17 ar
    27   17   18 ar
    28   17   41 1
    29   18   19 ar
    30   18   42 1
    31   19   20 ar
    32   19   43 1
    33   20   21 ar
    34   20   44 1
    35   21   45 1
    36   22   23 1
    37   22   46 1
    38   23   30 1
    39   23   24 2
    40   24   25 1
    41   25   26 2
    42   25   27 1
    43   27   28 1
    44   27   47 1
    45   27   48 1
    46   28   29 1
    47   28   30 1
    48   28   31 1
    49   30   49 1
    50   30   50 1
    51   31   35 1
    52   31   32 2
    53   32   33 1
    54   32   51 1
    55   33   34 2
    56   33   52 1
    57   34   35 1
    58   34   53 1
@<TRIPOS>MOLECULE
ZINC63376022
   52    56     0     0     0
SMALL
USER_CHARGES

@<TRIPOS>ATOM
      1 C1         -0.0185    1.5027    0.0156 C.3       1 <0>        -0.1202
      2 C2          0.0019   -0.0041    0.0052 C.ar      1 <0>        -0.0682
      3 C3         -1.1821   -0.7110    0.1080 C.ar      1 <0>        -0.1014
      4 C4         -1.1667   -2.0919    0.0992 C.ar      1 <0>        -0.0899
      5 C5          0.0391   -2.7714   -0.0134 C.ar      1 <0>         0.1578
      6 C6          1.2265   -2.0601   -0.1170 C.ar      1 <0>        -0.0822
      7 C7          1.2049   -0.6777   -0.1129 C.ar      1 <0>        -0.0287
      8 Cl1         2.6884    0.2135   -0.2494 Cl        1 <0>        -0.0616
      9 N1          0.0572   -4.1725   -0.0221 N.am      1 <0>        -0.5266
     10 C8          0.1683   -4.8472    1.1393 C.2       1 <0>         0.5667
     11 O1          0.2525   -4.2427    2.1945 O.2       1 <0>        -0.5372
     12 C9          0.1860   -6.2529    1.1256 C.2       1 <0>        -0.5044
     13 H1         -0.0900   -6.6389   -2.0783 H         1 <0>         0.4237
     14 C10         0.0899   -6.9052   -0.0678 C.2       1 <0>         0.5051
     15 N2         -0.0216   -6.1794   -1.2267 N.am      1 <0>        -0.6555
     16 C11        -0.0420   -4.8344   -1.1894 C.2       1 <0>         0.7040
     17 O2         -0.1469   -4.2080   -2.2262 O.2       1 <0>        -0.5511
     18 O3          0.1049   -8.2544   -0.1089 O.3       1 <0>        -0.6620
     19 C12         0.3099   -7.0280    2.4121 C.3       1 <0>         0.2321
     20 H2          0.3947   -8.0923    2.1929 H         1 <0>         0.0735
     21 C13        -0.9216   -6.7778    3.2856 C.3       1 <0>         0.0882
     22 H3         -1.0807   -5.7082    3.4228 H         1 <0>         0.1837
     23 C14        -0.6395   -7.4526    4.6232 C.2       1 <0>         0.0758
     24 C15        -1.6607   -8.2650    4.8562 C.ar      1 <0>        -0.1812
     25 C16        -1.9980   -9.1115    6.0122 C.ar      1 <0>         0.0026
     26 C17        -3.1390   -9.8427    5.9075 C.ar      1 <0>        -0.1688
     27 C18        -3.9684   -9.8175    4.7820 C.ar      1 <0>         0.0320
     28 C19        -3.7388   -9.0644    3.6769 C.ar      1 <0>        -0.1974
     29 C20        -2.5713   -8.2473    3.6704 C.ar      1 <0>         0.3177
     30 N3         -2.1274   -7.4101    2.7527 N.pl3     1 <0>        -0.5532
     31 C21         0.6495   -7.2169    5.3727 C.3       1 <0>        -0.0799
     32 C22         1.7818   -7.3816    4.3424 C.3       1 <0>         0.0535
     33 N4          1.5008   -6.5772    3.1498 N.3       1 <0>        -0.5361
     34 C23         2.6739   -6.5144    2.2679 C.3       1 <0>         0.0519
     35 H4         -0.1206    1.8718   -1.0049 H         1 <0>         0.0779
     36 H5         -0.8607    1.8506    0.6137 H         1 <0>         0.0725
     37 H6          0.9111    1.8757    0.4456 H         1 <0>         0.0749
     38 H7         -2.1199   -0.1826    0.1956 H         1 <0>         0.1378
     39 H8         -2.0920   -2.6431    0.1802 H         1 <0>         0.1265
     40 H9          2.1658   -2.5859   -0.2047 H         1 <0>         0.1334
     41 H10        -1.3744   -9.1496    6.8931 H         1 <0>         0.1629
     42 H11        -3.4192  -10.4761    6.7362 H         1 <0>         0.1460
     43 H12        -4.8511  -10.4397    4.7929 H         1 <0>         0.1486
     44 H13        -4.4146   -9.0837    2.8347 H         1 <0>         0.1615
     45 H14         0.6632   -6.2086    5.7864 H         1 <0>         0.1258
     46 H15         0.7588   -7.9519    6.1701 H         1 <0>         0.1069
     47 H16         2.7230   -7.0553    4.7847 H         1 <0>         0.1004
     48 H17         1.8626   -8.4310    4.0589 H         1 <0>         0.0418
     49 H18         2.4805   -5.8142    1.4553 H         1 <0>         0.0728
     50 H19         3.5398   -6.1786    2.8385 H         1 <0>         0.0660
     51 H20         2.8719   -7.5038    1.8556 H         1 <0>         0.0276
     52 H21        -2.5186   -7.2419    1.8812 H         1 <0>         0.4538
@<TRIPOS>BOND
     1    1    2 1
     2    1   35 1
     3    1   36 1
     4    1   37 1
     5    2    7 ar
     6    2    3 ar
     7    3    4 ar
     8    3   38 1
     9    4    5 ar
    10    4   39 1
    11    5    6 ar
    12    5    9 1
    13    6    7 ar
    14    6   40 1
    15    7    8 1
    16    9   16 am
    17    9   10 am
    18   10   11 2
    19   10   12 1
    20   12   19 1
    21   12   14 2
    22   13   15 1
    23   14   18 1
    24   14   15 1
    25   15   16 am
    26   16   17 2
    27   19   20 1
    28   19   33 1
    29   19   21 1
    30   21   22 1
    31   21   30 1
    32   21   23 1
    33   23   24 2
    34   23   31 1
    35   24   29 ar
    36   24   25 ar
    37   25   26 ar
    38   25   41 1
    39   26   27 ar
    40   26   42 1
    41   27   28 ar
    42   27   43 1
    43   28   29 ar
    44   28   44 1
    45   29   30 2
    46   30   52 1
    47   31   32 1
    48   31   45 1
    49   31   46 1
    50   32   33 1
    51   32   47 1
    52   32   48 1
    53   33   34 1
    54   34   49 1
    55   34   50 1
    56   34   51 1
@<TRIPOS>MOLECULE
ZINC09436508
   52    54     0     0     0
SMALL
USER_CHARGES
1-[(4-sulfamoylphenyl)carbamoyl]ethyl 2-(5,6-dimethylbenzofuran-3-yl)acetate
@<TRIPOS>ATOM
      1 C1         -6.3520   -6.3019   -1.2808 C.3       1 <0>        -0.1155
      2 C2         -5.6694   -6.2423    0.0614 C.ar      1 <0>        -0.0974
      3 C3         -4.4130   -5.6874    0.1680 C.ar      1 <0>        -0.0707
      4 C4         -3.7891   -5.6297    1.4131 C.ar      1 <0>        -0.1132
      5 C5         -4.4339   -6.1452    2.5501 C.ar      1 <0>         0.0524
      6 C6         -5.7005   -6.7001    2.4208 C.ar      1 <0>        -0.1038
      7 C7         -6.3090   -6.7462    1.1846 C.ar      1 <0>        -0.0589
      8 C8         -7.6834   -7.3497    1.0520 C.3       1 <0>        -0.1178
      9 O1         -3.6047   -5.9627    3.5975 O.3       1 <0>        -0.1892
     10 C9         -2.4637   -5.3678    3.2078 C.2       1 <0>         0.0361
     11 C10        -2.4923   -5.1333    1.8889 C.2       1 <0>        -0.1800
     12 C11        -1.4128   -4.4843    1.0615 C.3       1 <0>        -0.0352
     13 C12        -1.7027   -3.0120    0.9230 C.2       1 <0>         0.4620
     14 O2         -2.6852   -2.5382    1.4429 O.2       1 <0>        -0.4912
     15 O3         -0.8696   -2.2269    0.2222 O.3       1 <0>        -0.3286
     16 C13        -1.2115   -0.8187    0.1307 C.3       1 <0>         0.0737
     17 H1         -1.7530   -0.5173    1.0274 H         1 <0>         0.1170
     18 C14        -2.0917   -0.5864   -1.0989 C.3       1 <0>        -0.1683
     19 C15         0.0494   -0.0026    0.0073 C.2       1 <0>         0.5194
     20 O4          1.1233   -0.5573   -0.0940 O.2       1 <0>        -0.4853
     21 N1         -0.0162    1.3436    0.0094 N.am      1 <0>        -0.6722
     22 C16         1.1599    2.1014   -0.0077 C.ar      1 <0>         0.2043
     23 C17         1.2209    3.3071    0.6786 C.ar      1 <0>        -0.1649
     24 C18         2.3854    4.0495    0.6652 C.ar      1 <0>         0.0045
     25 C19         3.4858    3.5996   -0.0412 C.ar      1 <0>        -0.6928
     26 C20         3.4264    2.4024   -0.7306 C.ar      1 <0>        -0.0004
     27 C21         2.2669    1.6521   -0.7157 C.ar      1 <0>        -0.1438
     28 S1          4.9671    4.5536   -0.0622 S.o2      1 <0>         2.7036
     29 O5          4.9457    5.3627    1.1058 O.2       1 <0>        -0.9626
     30 O6          6.0276    3.6508   -0.3443 O.2       1 <0>        -0.9594
     31 N2          4.8671    5.5847   -1.3541 N.pl3     1 <0>        -1.2482
     32 H2         -6.9378   -5.3950   -1.4310 H         1 <0>         0.0716
     33 H3         -5.6014   -6.3839   -2.0668 H         1 <0>         0.0664
     34 H4         -7.0106   -7.1697   -1.3153 H         1 <0>         0.0733
     35 H5         -3.9165   -5.2949   -0.7071 H         1 <0>         0.1240
     36 H6         -6.2083   -7.0956    3.2880 H         1 <0>         0.1330
     37 H7         -8.4360   -6.5740    1.1931 H         1 <0>         0.0752
     38 H8         -7.7940   -7.7872    0.0598 H         1 <0>         0.0756
     39 H9         -7.8144   -8.1246    1.8074 H         1 <0>         0.0694
     40 H10        -1.6428   -5.1160    3.8629 H         1 <0>         0.2089
     41 H11        -1.3865   -4.9440    0.0735 H         1 <0>         0.1202
     42 H12        -0.4485   -4.6203    1.5512 H         1 <0>         0.1221
     43 H13        -2.3484    0.4708   -1.1676 H         1 <0>         0.0826
     44 H14        -1.5502   -0.8878   -1.9956 H         1 <0>         0.0779
     45 H15        -3.0037   -1.1766   -1.0096 H         1 <0>         0.0818
     46 H16        -0.8788    1.7871    0.0188 H         1 <0>         0.4178
     47 H17         0.3601    3.6616    1.2262 H         1 <0>         0.1396
     48 H18         2.4352    4.9846    1.2032 H         1 <0>         0.1487
     49 H19         4.2876    2.0536   -1.2810 H         1 <0>         0.1483
     50 H20         2.2214    0.7168   -1.2538 H         1 <0>         0.1509
     51 H21         5.3091    6.4475   -1.3214 H         1 <0>         0.4221
     52 H22         4.3664    5.3259   -2.1436 H         1 <0>         0.4171
@<TRIPOS>BOND
     1    1    2 1
     2    1   32 1
     3    1   33 1
     4    1   34 1
     5    2    7 ar
     6    2    3 ar
     7    3    4 ar
     8    3   35 1
     9    4   11 1
    10    4    5 ar
    11    5    6 ar
    12    5    9 1
    13    6    7 ar
    14    6   36 1
    15    7    8 1
    16    8   37 1
    17    8   38 1
    18    8   39 1
    19    9   10 1
    20   10   11 2
    21   10   40 1
    22   11   12 1
    23   12   13 1
    24   12   41 1
    25   12   42 1
    26   13   14 2
    27   13   15 1
    28   15   16 1
    29   16   17 1
    30   16   18 1
    31   16   19 1
    32   18   43 1
    33   18   44 1
    34   18   45 1
    35   19   20 2
    36   19   21 am
    37   21   22 1
    38   21   46 1
    39   22   27 ar
    40   22   23 ar
    41   23   24 ar
    42   23   47 1
    43   24   25 ar
    44   24   48 1
    45   25   26 ar
    46   25   28 1
    47   26   27 ar
    48   26   49 1
    49   27   50 1
    50   28   29 2
    51   28   30 2
    52   28   31 1
    53   31   51 1
    54   31   52 1
@<TRIPOS>MOLECULE
ZINC17080372
   50    51     0     0     0
SMALL
USER_CHARGES
3-[(3,4-dimethoxyphenyl)sulfonylamino]-1-(4-isopropylphenyl)urea
@<TRIPOS>ATOM
      1 C1          1.9879    4.9046   -9.3122 C.3       1 <0>        -0.1449
      2 C2          0.7893    5.5874   -8.6503 C.3       1 <0>        -0.0569
      3 C3         -0.4405    5.4425   -9.5489 C.3       1 <0>        -0.1451
      4 C4          0.5160    4.9407   -7.3168 C.ar      1 <0>        -0.0881
      5 C5          0.5704    5.6959   -6.1597 C.ar      1 <0>        -0.0987
      6 C6          0.3201    5.1062   -4.9361 C.ar      1 <0>        -0.1147
      7 C7          0.0134    3.7535   -4.8686 C.ar      1 <0>         0.1496
      8 C8         -0.0353    2.9968   -6.0320 C.ar      1 <0>        -0.1409
      9 C9          0.2109    3.5935   -7.2530 C.ar      1 <0>        -0.0958
     10 N1         -0.2403    3.1530   -3.6303 N.am      1 <0>        -0.6768
     11 C10        -0.8712    3.8462   -2.6619 C.2       1 <0>         0.7197
     12 O1         -1.1448    5.0184   -2.8331 O.2       1 <0>        -0.5512
     13 N2         -1.1988    3.2400   -1.5036 N.am      1 <0>        -0.5119
     14 N3         -0.8836    1.8892   -1.3063 N.pl3     1 <0>        -0.9165
     15 S1          0.0030    1.4303    0.0150 S.o2      1 <0>         2.6978
     16 O2          0.0309    0.0096    0.0118 O.2       1 <0>        -0.9354
     17 O3          1.1873    2.2156    0.0020 O.2       1 <0>        -0.9327
     18 C11        -0.9057    1.9130    1.4453 C.ar      1 <0>        -0.6842
     19 C12        -0.7010    3.1610    2.0039 C.ar      1 <0>        -0.0109
     20 C13        -1.4155    3.5465    3.1228 C.ar      1 <0>        -0.1949
     21 C14        -2.3311    2.6771    3.6936 C.ar      1 <0>         0.1655
     22 C15        -2.5330    1.4188    3.1348 C.ar      1 <0>         0.0840
     23 C16        -1.8176    1.0408    2.0099 C.ar      1 <0>        -0.0755
     24 O4         -3.4308    0.5621    3.6911 O.3       1 <0>        -0.3018
     25 C17        -3.5862   -0.7124    3.0638 C.3       1 <0>         0.0191
     26 O5         -3.0311    3.0529    4.7973 O.3       1 <0>        -0.2969
     27 C18        -2.7721    4.3588    5.3163 C.3       1 <0>         0.0195
     28 H1          2.1855    5.3724  -10.2767 H         1 <0>         0.0581
     29 H2          2.8640    5.0079   -8.6720 H         1 <0>         0.0563
     30 H3          1.7680    3.8472   -9.4594 H         1 <0>         0.0564
     31 H4          1.0091    6.6448   -8.5031 H         1 <0>         0.0778
     32 H5         -1.2944    5.9289   -9.0774 H         1 <0>         0.0561
     33 H6         -0.2429    5.9102  -10.5134 H         1 <0>         0.0581
     34 H7         -0.6604    4.3851   -9.6962 H         1 <0>         0.0563
     35 H8          0.8086    6.7479   -6.2129 H         1 <0>         0.1256
     36 H9          0.3624    5.6967   -4.0328 H         1 <0>         0.1414
     37 H10        -0.2691    1.9436   -5.9823 H         1 <0>         0.1250
     38 H11         0.1691    3.0063   -8.1585 H         1 <0>         0.1259
     39 H12         0.0378    2.2378   -3.4691 H         1 <0>         0.4082
     40 H13        -1.6529    3.7389   -0.8065 H         1 <0>         0.4358
     41 H14        -1.1847    1.2228   -1.9436 H         1 <0>         0.4255
     42 H15         0.0155    3.8379    1.5625 H         1 <0>         0.1494
     43 H16        -1.2570    4.5237    3.5545 H         1 <0>         0.1500
     44 H17        -1.9722    0.0646    1.5745 H         1 <0>         0.1539
     45 H18        -3.9141   -0.5727    2.0337 H         1 <0>         0.0583
     46 H19        -2.6328   -1.2406    3.0731 H         1 <0>         0.0609
     47 H20        -4.3302   -1.2959    3.6060 H         1 <0>         0.1074
     48 H21        -3.0025    5.1045    4.5554 H         1 <0>         0.0621
     49 H22        -3.3949    4.5311    6.1942 H         1 <0>         0.1082
     50 H23        -1.7213    4.4371    5.5953 H         1 <0>         0.0620
@<TRIPOS>BOND
     1    1    2 1
     2    1   28 1
     3    1   29 1
     4    1   30 1
     5    2    3 1
     6    2    4 1
     7    2   31 1
     8    3   32 1
     9    3   33 1
    10    3   34 1
    11    4    9 ar
    12    4    5 ar
    13    5    6 ar
    14    5   35 1
    15    6    7 ar
    16    6   36 1
    17    7    8 ar
    18    7   10 1
    19    8    9 ar
    20    8   37 1
    21    9   38 1
    22   10   11 am
    23   10   39 1
    24   11   12 2
    25   11   13 am
    26   13   14 1
    27   13   40 1
    28   14   15 1
    29   14   41 1
    30   15   16 2
    31   15   17 2
    32   15   18 1
    33   18   23 ar
    34   18   19 ar
    35   19   20 ar
    36   19   42 1
    37   20   21 ar
    38   20   43 1
    39   21   22 ar
    40   21   26 1
    41   22   23 ar
    42   22   24 1
    43   23   44 1
    44   24   25 1
    45   25   45 1
    46   25   46 1
    47   25   47 1
    48   26   27 1
    49   27   48 1
    50   27   49 1
    51   27   50 1
@<TRIPOS>MOLECULE
ZINC22025158
   49    51     0     0     0
SMALL
USER_CHARGES
ethyl (6R)-4-[(3-hydroxybenzoyl)oxymethyl]-2-oxo-6-phenyl-3,6-dihydro-1H-pyrimidine-5-carboxylate
@<TRIPOS>ATOM
      1 C1         -0.6030   11.0805   -3.4501 C.3       1 <0>        -0.1541
      2 C2          0.3390    9.8771   -3.5238 C.3       1 <0>         0.0559
      3 O1          1.1292    9.8172   -2.3346 O.3       1 <0>        -0.3430
      4 C3          2.0180    8.8063   -2.2399 C.2       1 <0>         0.5406
      5 O2          2.1184    7.9978   -3.1437 O.2       1 <0>        -0.4859
      6 C4          2.8330    8.6865   -1.0900 C.2       1 <0>        -0.2376
      7 C5          2.3498    8.1617    0.0567 C.2       1 <0>         0.2151
      8 N1          3.1364    8.0510    1.1675 N.am      1 <0>        -0.6603
      9 C6          4.4192    8.4322    1.2099 C.2       1 <0>         0.7086
     10 O3          5.0413    8.2888    2.2444 O.2       1 <0>        -0.5659
     11 N2          5.0420    8.9741    0.1446 N.am      1 <0>        -0.7285
     12 C7          4.2781    9.1422   -1.1031 C.3       1 <0>         0.2460
     13 H1          4.7983    8.4799   -1.8107 H         1 <0>         0.0976
     14 C8          4.3010   10.6041   -1.4684 C.ar      1 <0>        -0.1065
     15 C9          4.0185   11.5603   -0.5108 C.ar      1 <0>        -0.0876
     16 C10         4.0438   12.9014   -0.8448 C.ar      1 <0>        -0.1174
     17 C11         4.3421   13.2860   -2.1387 C.ar      1 <0>        -0.1101
     18 C12         4.6198   12.3296   -3.0974 C.ar      1 <0>        -0.1172
     19 C13         4.5988   10.9886   -2.7623 C.ar      1 <0>        -0.1045
     20 C14         0.9176    7.6964    0.1131 C.3       1 <0>         0.0924
     21 O4          0.8833    6.2586    0.3123 O.3       1 <0>        -0.3427
     22 C15        -0.3311    5.6801    0.3857 C.2       1 <0>         0.5146
     23 O5         -1.3339    6.3583    0.2861 O.2       1 <0>        -0.4960
     24 C16        -0.4432    4.2209    0.5875 C.ar      1 <0>        -0.0886
     25 C17         0.7080    3.4387    0.7024 C.ar      1 <0>        -0.1028
     26 C18         0.5994    2.0764    0.8902 C.ar      1 <0>        -0.0887
     27 C19        -0.6468    1.4813    0.9648 C.ar      1 <0>        -0.1233
     28 C20        -1.7968    2.2497    0.8464 C.ar      1 <0>         0.1493
     29 C21        -1.6998    3.6189    0.6634 C.ar      1 <0>        -0.1510
     30 O6         -3.0187    1.6585    0.9149 O.3       1 <0>        -0.5060
     31 H2         -1.2112   11.1266   -4.3655 H         1 <0>         0.0821
     32 H3         -0.0120   12.0035   -3.3556 H         1 <0>         0.0685
     33 H4         -1.2629   10.9766   -2.5762 H         1 <0>         0.0677
     34 H5         -0.2520    8.9541   -3.6183 H         1 <0>         0.0692
     35 H6          0.9989    9.9810   -4.3977 H         1 <0>         0.0714
     36 H7          2.7221    7.6290    2.0950 H         1 <0>         0.4586
     37 H8          6.0952    9.2880    0.1912 H         1 <0>         0.4624
     38 H9          3.7815   11.2596    0.4990 H         1 <0>         0.1159
     39 H10         3.8272   13.6487   -0.0958 H         1 <0>         0.1237
     40 H11         4.3585   14.3336   -2.4005 H         1 <0>         0.1236
     41 H12         4.8528   12.6300   -4.1082 H         1 <0>         0.1246
     42 H13         4.8154   10.2414   -3.5114 H         1 <0>         0.1227
     43 H14         0.4028    8.1946    0.9478 H         1 <0>         0.1082
     44 H15         0.4129    7.9479   -0.8314 H         1 <0>         0.0989
     45 H16         1.6827    3.9001    0.6439 H         1 <0>         0.1397
     46 H17         1.4904    1.4725    0.9789 H         1 <0>         0.1408
     47 H18        -0.7255    0.4142    1.1113 H         1 <0>         0.1377
     48 H19        -2.5939    4.2184    0.5753 H         1 <0>         0.1426
     49 H20        -3.9302    2.2671    0.8211 H         1 <0>         0.4394
@<TRIPOS>BOND
     1    1    2 1
     2    1   31 1
     3    1   32 1
     4    1   33 1
     5    2    3 1
     6    2   34 1
     7    2   35 1
     8    3    4 1
     9    4    5 2
    10    4    6 1
    11    6   12 1
    12    6    7 2
    13    7    8 1
    14    7   20 1
    15    8    9 am
    16    8   36 1
    17    9   10 2
    18    9   11 am
    19   11   12 1
    20   11   37 1
    21   12   13 1
    22   12   14 1
    23   14   19 ar
    24   14   15 ar
    25   15   16 ar
    26   15   38 1
    27   16   17 ar
    28   16   39 1
    29   17   18 ar
    30   17   40 1
    31   18   19 ar
    32   18   41 1
    33   19   42 1
    34   20   21 1
    35   20   43 1
    36   20   44 1
    37   21   22 1
    38   22   23 2
    39   22   24 1
    40   24   29 ar
    41   24   25 ar
    42   25   26 ar
    43   25   45 1
    44   26   27 ar
    45   26   46 1
    46   27   28 ar
    47   27   47 1
    48   28   29 ar
    49   28   30 1
    50   29   48 1
    51   30   49 1
@<TRIPOS>MOLECULE
ZINC36849378
   54    56     0     0     0
SMALL
USER_CHARGES

@<TRIPOS>ATOM
      1 C1         -0.4593    1.3755    0.5335 C.3       1 <0>        -0.1228
      2 C2         -0.3424   -0.1215    0.4060 C.ar      1 <0>        -0.0622
      3 C3         -0.2653   -0.7035   -0.8462 C.ar      1 <0>        -0.1014
      4 C4         -0.1581   -2.0751   -0.9662 C.ar      1 <0>        -0.0963
      5 C5         -0.1273   -2.8699    0.1719 C.ar      1 <0>         0.0920
      6 C6         -0.2044   -2.2828    1.4274 C.ar      1 <0>        -0.0950
      7 C7         -0.3067   -0.9099    1.5412 C.ar      1 <0>        -0.0705
      8 C8         -0.3853   -0.2713    2.9040 C.3       1 <0>        -0.1192
      9 N1         -0.0190   -4.2624    0.0533 N.pl3     1 <0>        -0.4056
     10 C9         -0.9352   -5.1244   -0.5099 C.2       1 <0>         0.2249
     11 N2         -0.4357   -6.3350   -0.4117 N.2       1 <0>        -0.2498
     12 N3          0.7118   -6.2916    0.1649 N.2       1 <0>        -0.2852
     13 C10         1.0201   -5.0488    0.4666 C.2       1 <0>         0.1670
     14 S1          2.4950   -4.5005    1.2594 S.3       1 <0>         0.0843
     15 C11         3.3764   -6.0355    1.6566 C.3       1 <0>        -0.1039
     16 H1          2.7149   -6.7011    2.2111 H         1 <0>         0.1274
     17 C12         4.6055   -5.7120    2.5084 C.3       1 <0>        -0.0728
     18 C13         4.1623   -5.0345    3.8067 C.3       1 <0>        -0.1519
     19 C14         5.3526   -7.0060    2.8377 C.3       1 <0>        -0.1558
     20 C15         3.8124   -6.7089    0.3809 C.2       1 <0>         0.5309
     21 O1          3.9779   -6.0527   -0.6250 O.2       1 <0>        -0.4417
     22 N4          4.0183   -8.0406    0.3582 N.am      1 <0>        -0.6817
     23 C16         4.4082   -8.6429   -0.7827 C.2       1 <0>         0.6985
     24 O2          4.5742   -7.9851   -1.7911 O.2       1 <0>        -0.5307
     25 N5          4.6141   -9.9746   -0.8054 N.am      1 <0>        -0.8563
     26 C17        -2.2340   -4.7562   -1.1100 C.ar      1 <0>         0.0281
     27 C18        -2.7967   -3.4929   -0.8891 C.ar      1 <0>        -0.1599
     28 C19        -4.0110   -3.1916   -1.4688 C.ar      1 <0>         0.1071
     29 N6         -4.6404   -4.0741   -2.2216 N.ar      1 <0>        -0.4743
     30 C20        -4.1459   -5.2752   -2.4553 C.ar      1 <0>         0.1060
     31 C21        -2.9343   -5.6587   -1.9203 C.ar      1 <0>        -0.1292
     32 H2          0.5369    1.8146    0.5863 H         1 <0>         0.0787
     33 H3         -0.9865    1.7740   -0.3333 H         1 <0>         0.0729
     34 H4         -1.0130    1.6208    1.4398 H         1 <0>         0.0749
     35 H5         -0.2893   -0.0848   -1.7311 H         1 <0>         0.1388
     36 H6         -0.0986   -2.5291   -1.9444 H         1 <0>         0.1304
     37 H7         -0.1808   -2.8985    2.3144 H         1 <0>         0.1336
     38 H8         -1.4286   -0.1958    3.2102 H         1 <0>         0.0770
     39 H9          0.1613   -0.8814    3.6231 H         1 <0>         0.0717
     40 H10         0.0547    0.7251    2.8642 H         1 <0>         0.0764
     41 H11         5.2646   -5.0425    1.9558 H         1 <0>         0.0922
     42 H12         3.4279   -5.6620    4.3116 H         1 <0>         0.0654
     43 H13         5.0264   -4.8924    4.4557 H         1 <0>         0.0712
     44 H14         3.7169   -4.0664    3.5776 H         1 <0>         0.0662
     45 H15         5.6683   -7.4887    1.9128 H         1 <0>         0.0597
     46 H16         6.2282   -6.7756    3.4446 H         1 <0>         0.0763
     47 H17         4.6935   -7.6755    3.3904 H         1 <0>         0.0664
     48 H18         3.8859   -8.5656    1.1630 H         1 <0>         0.4100
     49 H19         4.4817  -10.4997   -0.0006 H         1 <0>         0.3998
     50 H20         4.8948  -10.4081   -1.6265 H         1 <0>         0.4212
     51 H21        -2.2875   -2.7659   -0.2739 H         1 <0>         0.1396
     52 H22        -4.4533   -2.2202   -1.3041 H         1 <0>         0.1622
     53 H23        -4.6957   -5.9656   -3.0778 H         1 <0>         0.1664
     54 H24        -2.5335   -6.6416   -2.1195 H         1 <0>         0.1490
@<TRIPOS>BOND
     1    1    2 1
     2    1   32 1
     3    1   33 1
     4    1   34 1
     5    2    7 ar
     6    2    3 ar
     7    3    4 ar
     8    3   35 1
     9    4    5 ar
    10    4   36 1
    11    5    6 ar
    12    5    9 1
    13    6    7 ar
    14    6   37 1
    15    7    8 1
    16    8   38 1
    17    8   39 1
    18    8   40 1
    19    9   13 1
    20    9   10 1
    21   10   11 2
    22   10   26 1
    23   11   12 1
    24   12   13 2
    25   13   14 1
    26   14   15 1
    27   15   16 1
    28   15   17 1
    29   15   20 1
    30   17   18 1
    31   17   19 1
    32   17   41 1
    33   18   42 1
    34   18   43 1
    35   18   44 1
    36   19   45 1
    37   19   46 1
    38   19   47 1
    39   20   21 2
    40   20   22 am
    41   22   23 am
    42   22   48 1
    43   23   24 2
    44   23   25 am
    45   25   49 1
    46   25   50 1
    47   26   31 ar
    48   26   27 ar
    49   27   28 ar
    50   27   51 1
    51   28   29 ar
    52   28   52 1
    53   29   30 ar
    54   30   31 ar
    55   30   53 1
    56   31   54 1
@<TRIPOS>MOLECULE
ZINC66200742
   54    55     0     0     0
SMALL
USER_CHARGES

@<TRIPOS>ATOM
      1 C1         -0.4775    1.6322   -1.2467 C.3       1 <0>        -0.1495
      2 C2         -0.3984    0.1046   -1.2816 C.3       1 <0>        -0.0822
      3 C3          0.8855   -0.3556   -0.5883 C.3       1 <0>        -0.1558
      4 C4         -1.6094   -0.4855   -0.5563 C.3       1 <0>        -0.1362
      5 C5         -1.5967   -1.9859   -0.6960 C.2       1 <0>         0.5130
      6 O1         -0.7067   -2.5297   -1.3149 O.2       1 <0>        -0.5072
      7 N1         -2.5744   -2.7235   -0.1333 N.am      1 <0>        -0.6777
      8 C6         -2.6165   -4.1015   -0.3426 C.ar      1 <0>         0.1780
      9 C7         -1.4321   -4.8251   -0.4412 C.ar      1 <0>        -0.1287
     10 C8         -1.4700   -6.1855   -0.6484 C.ar      1 <0>        -0.0317
     11 C9         -2.7001   -6.8400   -0.7591 C.ar      1 <0>        -0.1531
     12 C10        -3.8879   -6.1100   -0.6591 C.ar      1 <0>        -0.0651
     13 C11        -3.8427   -4.7506   -0.4468 C.ar      1 <0>        -0.1531
     14 C12        -2.7446   -8.2979   -0.9816 C.2       1 <0>         0.5810
     15 O2         -1.7102   -8.9316   -1.0688 O.2       1 <0>        -0.4965
     16 N2         -3.9316   -8.9274   -1.0882 N.am      1 <0>        -0.5804
     17 N3         -3.9739  -10.3117   -1.2994 N.2       1 <0>        -0.2169
     18 C13        -5.1171  -10.9180   -1.4020 C.2       1 <0>         0.1068
     19 C14        -5.1616  -12.3746   -1.6243 C.ar      1 <0>         0.0153
     20 C15        -3.9743  -13.1048   -1.7190 C.ar      1 <0>        -0.1908
     21 C16        -4.0193  -14.4715   -1.9276 C.ar      1 <0>         0.1387
     22 C17        -5.2454  -15.1191   -2.0432 C.ar      1 <0>         0.0566
     23 C18        -6.4297  -14.3945   -1.9498 C.ar      1 <0>         0.1386
     24 C19        -6.3913  -13.0286   -1.7350 C.ar      1 <0>        -0.2035
     25 O3         -7.6261  -15.0308   -2.0641 O.3       1 <0>        -0.3014
     26 C20        -8.8019  -14.2256   -1.9583 C.3       1 <0>         0.0235
     27 O4         -5.2865  -16.4632   -2.2483 O.3       1 <0>        -0.4720
     28 O5         -2.8639  -15.1829   -2.0204 O.3       1 <0>        -0.3020
     29 C21        -1.6413  -14.4542   -1.8930 C.3       1 <0>         0.0231
     30 H1          0.3852    2.0526   -1.7635 H         1 <0>         0.0605
     31 H2         -1.3922    1.9600   -1.7407 H         1 <0>         0.0555
     32 H3         -0.4819    1.9722   -0.2111 H         1 <0>         0.0562
     33 H4         -0.3940   -0.2354   -2.3173 H         1 <0>         0.0793
     34 H5          0.8811   -0.0156    0.4473 H         1 <0>         0.0493
     35 H6          0.9418   -1.4439   -0.6132 H         1 <0>         0.0718
     36 H7          1.7482    0.0648   -1.1051 H         1 <0>         0.0557
     37 H8         -1.5660   -0.2185    0.4997 H         1 <0>         0.0991
     38 H9         -2.5248   -0.0875   -0.9943 H         1 <0>         0.0989
     39 H10        -3.2487   -2.2957    0.4173 H         1 <0>         0.4145
     40 H11        -0.4820   -4.3188   -0.3556 H         1 <0>         0.1492
     41 H12        -0.5503   -6.7465   -0.7255 H         1 <0>         0.1432
     42 H13        -4.8401   -6.6126   -0.7442 H         1 <0>         0.1280
     43 H14        -4.7601   -4.1866   -0.3650 H         1 <0>         0.1351
     44 H15        -4.7566   -8.4219   -1.0186 H         1 <0>         0.3867
     45 H16        -6.0357  -10.3552   -1.3246 H         1 <0>         0.1254
     46 H17        -3.0223  -12.6027   -1.6298 H         1 <0>         0.1489
     47 H18        -7.3108  -12.4675   -1.6574 H         1 <0>         0.1408
     48 H19        -9.6847  -14.8555   -2.0671 H         1 <0>         0.1042
     49 H20        -8.8216  -13.7376   -0.9838 H         1 <0>         0.0580
     50 H21        -8.7962  -13.4693   -2.7432 H         1 <0>         0.0586
     51 H22        -5.3104  -16.9847   -1.4344 H         1 <0>         0.3852
     52 H23        -0.7986  -15.1393   -1.9859 H         1 <0>         0.1048
     53 H24        -1.5845  -13.6998   -2.6777 H         1 <0>         0.0605
     54 H25        -1.6082  -13.9676   -0.9182 H         1 <0>         0.0599
@<TRIPOS>BOND
     1    1    2 1
     2    1   30 1
     3    1   31 1
     4    1   32 1
     5    2    3 1
     6    2    4 1
     7    2   33 1
     8    3   34 1
     9    3   35 1
    10    3   36 1
    11    4    5 1
    12    4   37 1
    13    4   38 1
    14    5    6 2
    15    5    7 am
    16    7    8 1
    17    7   39 1
    18    8   13 ar
    19    8    9 ar
    20    9   10 ar
    21    9   40 1
    22   10   11 ar
    23   10   41 1
    24   11   12 ar
    25   11   14 1
    26   12   13 ar
    27   12   42 1
    28   13   43 1
    29   14   15 2
    30   14   16 am
    31   16   17 1
    32   16   44 1
    33   17   18 2
    34   18   19 1
    35   18   45 1
    36   19   24 ar
    37   19   20 ar
    38   20   21 ar
    39   20   46 1
    40   21   22 ar
    41   21   28 1
    42   22   23 ar
    43   22   27 1
    44   23   24 ar
    45   23   25 1
    46   24   47 1
    47   25   26 1
    48   26   48 1
    49   26   49 1
    50   26   50 1
    51   27   51 1
    52   28   29 1
    53   29   52 1
    54   29   53 1
    55   29   54 1
@<TRIPOS>MOLECULE
ZINC08926777
   48    51     0     0     0
SMALL
USER_CHARGES

@<TRIPOS>ATOM
      1 C1         -0.0184    1.5028    0.0103 C.3       1 <0>        -0.1067
      2 C2          0.0021   -0.0041    0.0020 C.ar      1 <0>        -0.1025
      3 C3          0.0057   -0.6888   -1.1980 C.ar      1 <0>        -0.0738
      4 C4          0.0244   -2.0721   -1.2062 C.ar      1 <0>        -0.0685
      5 C5          0.0395   -2.7727   -0.0128 C.ar      1 <0>        -0.0749
      6 C6          0.0359   -2.0917    1.1889 C.ar      1 <0>        -0.1943
      7 C7          0.0230   -0.7044    1.1990 C.ar      1 <0>         0.1364
      8 O1          0.0255   -0.0325    2.3806 O.3       1 <0>        -0.3009
      9 C8          0.0475   -0.8185    3.5738 C.3       1 <0>         0.1199
     10 C9          0.0471    0.0917    4.7749 C.2       1 <0>        -0.1252
     11 C10         0.0216    1.4644    4.6148 C.2       1 <0>        -0.1310
     12 C11         0.0220    2.2548    5.7160 C.2       1 <0>        -0.1278
     13 S1          0.0592    1.0514    7.0342 S.3       1 <0>         0.0546
     14 C12         0.0660   -0.4236    6.0285 C.2       1 <0>        -0.1436
     15 C13         0.0886   -1.8671    6.4609 C.3       1 <0>        -0.0738
     16 C14        -0.0022    3.7590    5.8046 C.3       1 <0>         0.1688
     17 H1         -0.0218    4.1861    4.8019 H         1 <0>         0.1112
     18 C15        -1.2213    4.2037    6.5706 C.2       1 <0>        -0.2699
     19 C16        -2.5545    4.1952    6.1833 C.2       1 <0>         0.1269
     20 N1         -3.2696    4.6729    7.1740 N.2       1 <0>        -0.2620
     21 N2         -2.4031    5.0014    8.2284 N.pl3     1 <0>        -0.4450
     22 H2         -2.6622    5.3741    9.0856 H         1 <0>         0.4475
     23 C17        -1.1520    4.7076    7.8395 C.2       1 <0>         0.2811
     24 O2          0.0195    4.8504    8.5078 O.3       1 <0>        -0.2296
     25 C18         1.1608    4.7401    7.7980 C.2       1 <0>         0.4458
     26 C19         1.2212    4.2451    6.5410 C.2       1 <0>        -0.2642
     27 C20         2.4921    4.1808    5.8843 C.1       1 <0>         0.2702
     28 N3          3.5003    4.1298    5.3633 N.1       1 <0>        -0.4337
     29 N4          2.3302    5.1537    8.3862 N.pl3     1 <0>        -0.8285
     30 C21        -3.0872    3.7204    4.8559 C.3       1 <0>        -0.0799
     31 Cl1         0.0284   -2.9301   -2.7153 Cl        1 <0>        -0.0701
     32 H3          1.0042    1.8801    0.0026 H         1 <0>         0.0720
     33 H4         -0.5455    1.8639   -0.8728 H         1 <0>         0.0685
     34 H5         -0.5286    1.8543    0.9071 H         1 <0>         0.0743
     35 H6         -0.0064   -0.1437   -2.1304 H         1 <0>         0.1400
     36 H7          0.0538   -3.8525   -0.0212 H         1 <0>         0.1357
     37 H8          0.0473   -2.6389    2.1200 H         1 <0>         0.1366
     38 H9         -0.8339   -1.4592    3.6031 H         1 <0>         0.0749
     39 H10         0.9459   -1.4356    3.5859 H         1 <0>         0.0739
     40 H11         0.0020    1.9007    3.6271 H         1 <0>         0.1418
     41 H12         1.1215   -2.2021    6.5550 H         1 <0>         0.0806
     42 H13        -0.4145   -1.9661    7.4228 H         1 <0>         0.0765
     43 H14        -0.4250   -2.4771    5.7178 H         1 <0>         0.0792
     44 H15         2.3193    5.5127    9.2872 H         1 <0>         0.4124
     45 H16         3.1673    5.0869    7.9008 H         1 <0>         0.4288
     46 H17        -3.3204    2.6574    4.9172 H         1 <0>         0.0848
     47 H18        -3.9909    4.2769    4.6071 H         1 <0>         0.0800
     48 H19        -2.3357    3.8836    4.0834 H         1 <0>         0.0839
@<TRIPOS>BOND
     1    1    2 1
     2    1   32 1
     3    1   33 1
     4    1   34 1
     5    2    7 ar
     6    2    3 ar
     7    3    4 ar
     8    3   35 1
     9    4    5 ar
    10    4   31 1
    11    5    6 ar
    12    5   36 1
    13    6    7 ar
    14    6   37 1
    15    7    8 1
    16    8    9 1
    17    9   10 1
    18    9   38 1
    19    9   39 1
    20   10   14 2
    21   10   11 1
    22   11   12 2
    23   11   40 1
    24   12   13 1
    25   12   16 1
    26   13   14 1
    27   14   15 1
    28   15   41 1
    29   15   42 1
    30   15   43 1
    31   16   17 1
    32   16   26 1
    33   16   18 1
    34   18   23 2
    35   18   19 1
    36   19   20 2
    37   19   30 1
    38   20   21 1
    39   21   22 1
    40   21   23 1
    41   23   24 1
    42   24   25 1
    43   25   26 2
    44   25   29 1
    45   26   27 1
    46   27   28 3
    47   29   44 1
    48   29   45 1
    49   30   46 1
    50   30   47 1
    51   30   48 1
@<TRIPOS>MOLECULE
ZINC35023208
   48    51     0     0     0
SMALL
USER_CHARGES

@<TRIPOS>ATOM
      1 C1         -0.0926   -0.7743    4.3168 C.ar      1 <0>        -0.0986
      2 C2          0.6620    0.2703    3.7864 C.ar      1 <0>        -0.1178
      3 C3          1.7133    0.0240    2.9580 C.ar      1 <0>        -0.0944
      4 C4          2.0455   -1.3033    2.6306 C.ar      1 <0>        -0.0675
      5 C5          3.1228   -1.5917    1.7805 C.ar      1 <0>        -0.0201
      6 C6          3.4201   -2.9141    1.4809 C.ar      1 <0>        -0.1649
      7 C7          2.6479   -3.9601    2.0241 C.ar      1 <0>        -0.0860
      8 C8          1.6027   -3.6970    2.8474 C.ar      1 <0>        -0.1061
      9 C9          1.2771   -2.3661    3.1706 C.ar      1 <0>        -0.0253
     10 C10         0.1996   -2.0711    4.0218 C.ar      1 <0>        -0.1148
     11 C11         4.5482   -3.2255    0.5903 C.2       1 <0>         0.3993
     12 O1          5.1511   -2.3291    0.0393 O.2       1 <0>        -0.4105
     13 C12         4.9550   -4.6586    0.3623 C.3       1 <0>        -0.1479
     14 H1          4.2508   -5.3230    0.8630 H         1 <0>         0.1454
     15 C13         6.3641   -4.8883    0.9191 C.3       1 <0>         0.2062
     16 H2          6.6278   -5.9413    0.8199 H         1 <0>         0.1159
     17 N1          7.3173   -4.0722    0.1654 N.am      1 <0>        -0.7241
     18 C14         7.0971   -3.7487   -1.1177 C.2       1 <0>         0.7425
     19 O2          7.9263   -3.0775   -1.7011 O.2       1 <0>        -0.5705
     20 N2          5.9987   -4.1366   -1.7827 N.am      1 <0>        -0.7316
     21 C15         4.9653   -4.9578   -1.1405 C.3       1 <0>         0.3278
     22 C16         3.5960   -4.6264   -1.7373 C.3       1 <0>         0.4231
     23 F1          3.3725   -3.2478   -1.6546 F         1 <0>        -0.1597
     24 F2          3.5628   -5.0246   -3.0780 F         1 <0>        -0.1706
     25 F3          2.6005   -5.3036   -1.0248 F         1 <0>        -0.1600
     26 O3          5.2569   -6.3409   -1.3502 O.3       1 <0>        -0.5278
     27 C17         6.4014   -4.4946    2.3733 C.ar      1 <0>        -0.0893
     28 C18         6.6117   -3.1726    2.7236 C.ar      1 <0>        -0.1052
     29 C19         6.6471   -2.8052    4.0527 C.ar      1 <0>        -0.0636
     30 C20         6.4696   -3.7709    5.0456 C.ar      1 <0>        -0.0126
     31 C21         6.2573   -5.1030    4.6849 C.ar      1 <0>        -0.0663
     32 C22         6.2195   -5.4557    3.3518 C.ar      1 <0>        -0.0957
     33 C23         6.5055   -3.3968    6.4274 C.1       1 <0>         0.2462
     34 N3          6.5340   -3.1000    7.5236 N.1       1 <0>        -0.4037
     35 H3         -0.9192   -0.5521    4.9754 H         1 <0>         0.1275
     36 H4          0.4087    1.2901    4.0360 H         1 <0>         0.1278
     37 H5          2.2894    0.8432    2.5538 H         1 <0>         0.1315
     38 H6          3.7159   -0.7919    1.3623 H         1 <0>         0.1405
     39 H7          2.8911   -4.9840    1.7815 H         1 <0>         0.1297
     40 H8          1.0196   -4.5093    3.2554 H         1 <0>         0.1354
     41 H9         -0.3945   -2.8696    4.4411 H         1 <0>         0.1317
     42 H10         8.1244   -3.7587    0.6027 H         1 <0>         0.4239
     43 H11         5.8839   -3.8685   -2.7078 H         1 <0>         0.4218
     44 H12         5.2795   -6.6014   -2.2811 H         1 <0>         0.4005
     45 H13         6.7489   -2.4268    1.9546 H         1 <0>         0.1386
     46 H14         6.8121   -1.7732    4.3248 H         1 <0>         0.1369
     47 H15         6.1193   -5.8549    5.4478 H         1 <0>         0.1399
     48 H16         6.0513   -6.4850    3.0714 H         1 <0>         0.1426
@<TRIPOS>BOND
     1    1   10 ar
     2    1    2 ar
     3    1   35 1
     4    2    3 ar
     5    2   36 1
     6    3    4 ar
     7    3   37 1
     8    4    9 ar
     9    4    5 ar
    10    5    6 ar
    11    5   38 1
    12    6    7 ar
    13    6   11 1
    14    7    8 ar
    15    7   39 1
    16    8    9 ar
    17    8   40 1
    18    9   10 ar
    19   10   41 1
    20   11   12 2
    21   11   13 1
    22   13   14 1
    23   13   21 1
    24   13   15 1
    25   15   16 1
    26   15   17 1
    27   15   27 1
    28   17   18 am
    29   17   42 1
    30   18   19 2
    31   18   20 am
    32   20   21 1
    33   20   43 1
    34   21   22 1
    35   21   26 1
    36   22   23 1
    37   22   24 1
    38   22   25 1
    39   26   44 1
    40   27   32 ar
    41   27   28 ar
    42   28   29 ar
    43   28   45 1
    44   29   30 ar
    45   29   46 1
    46   30   31 ar
    47   30   33 1
    48   31   32 ar
    49   31   47 1
    50   32   48 1
    51   33   34 3
@<TRIPOS>MOLECULE
ZINC40681436
   40    42     0     0     0
SMALL
USER_CHARGES

@<TRIPOS>ATOM
      1 C1          2.3106   -0.1188   -1.0018 C.3       1 <0>        -0.1154
      2 C2          1.0637   -0.7846   -0.4792 C.ar      1 <0>        -0.0670
      3 C3         -0.1172   -0.6968   -1.1931 C.ar      1 <0>        -0.1179
      4 C4         -1.2630   -1.3065   -0.7164 C.ar      1 <0>        -0.0680
      5 C5         -1.2306   -2.0052    0.4749 C.ar      1 <0>        -0.1220
      6 C6         -0.0467   -2.0951    1.1929 C.ar      1 <0>         0.1051
      7 C7          1.1029   -1.4868    0.7097 C.ar      1 <0>        -0.1202
      8 O1         -0.0123   -2.7815    2.3653 O.3       1 <0>        -0.2478
      9 C8          0.1047   -2.0718    3.5156 C.ar      1 <0>         0.3080
     10 C9          0.2493   -2.7254    4.7389 C.ar      1 <0>         0.0700
     11 C10         0.3657   -1.9470    5.8931 C.ar      1 <0>         0.3691
     12 N1          0.3344   -0.6216    5.7818 N.ar      1 <0>        -0.4818
     13 C11         0.1961   -0.0445    4.6055 C.ar      1 <0>         0.3059
     14 N2          0.0887   -0.7427    3.4930 N.ar      1 <0>        -0.5450
     15 N3          0.5116   -2.5481    7.1387 N.pl3     1 <0>        -0.6319
     16 C12         0.5055   -1.7693    8.2922 C.ar      1 <0>         0.3890
     17 C13         0.5314   -2.3849    9.5394 C.ar      1 <0>        -0.2116
     18 C14         0.5255   -1.5993   10.6777 C.ar      1 <0>        -0.0139
     19 C15         0.4938   -0.2181   10.5298 C.ar      1 <0>        -0.1884
     20 C16         0.4692    0.3255    9.2602 C.ar      1 <0>         0.1731
     21 N4          0.4807   -0.4494    8.1922 N.ar      1 <0>        -0.4582
     22 Br1         0.4837    0.9057   12.0506 Br        1 <0>        -0.0368
     23 N5          0.2767   -4.1265    4.8086 N.pl3     1 <0>        -0.8653
     24 C17        -2.5484   -1.2084   -1.4968 C.3       1 <0>        -0.1151
     25 H1          2.8532   -0.8147   -1.6416 H         1 <0>         0.0726
     26 H2          2.0364    0.7655   -1.5771 H         1 <0>         0.0701
     27 H3          2.9441    0.1744   -0.1646 H         1 <0>         0.0677
     28 H4         -0.1447   -0.1508   -2.1245 H         1 <0>         0.1268
     29 H5         -2.1260   -2.4806    0.8471 H         1 <0>         0.1273
     30 H6          2.0266   -1.5588    1.2647 H         1 <0>         0.1225
     31 H7          0.1745    1.0339    4.5508 H         1 <0>         0.2015
     32 H8          0.6175   -3.5101    7.2036 H         1 <0>         0.4245
     33 H9          0.5554   -3.4618    9.6178 H         1 <0>         0.1421
     34 H10         0.5448   -2.0492   11.6594 H         1 <0>         0.1469
     35 H11         0.4441    1.3985    9.1401 H         1 <0>         0.1678
     36 H12         0.1944   -4.6542    3.9989 H         1 <0>         0.4106
     37 H13         0.3779   -4.5675    5.6667 H         1 <0>         0.3944
     38 H14        -2.6141   -2.0427   -2.1952 H         1 <0>         0.0733
     39 H15        -3.3940   -1.2422   -0.8099 H         1 <0>         0.0679
     40 H16        -2.5669   -0.2693   -2.0499 H         1 <0>         0.0701
@<TRIPOS>BOND
     1    1    2 1
     2    1   25 1
     3    1   26 1
     4    1   27 1
     5    2    7 ar
     6    2    3 ar
     7    3    4 ar
     8    3   28 1
     9    4    5 ar
    10    4   24 1
    11    5    6 ar
    12    5   29 1
    13    6    7 ar
    14    6    8 1
    15    7   30 1
    16    8    9 1
    17    9   14 ar
    18    9   10 ar
    19   10   11 ar
    20   10   23 1
    21   11   12 ar
    22   11   15 1
    23   12   13 ar
    24   13   14 ar
    25   13   31 1
    26   15   16 1
    27   15   32 1
    28   16   21 ar
    29   16   17 ar
    30   17   18 ar
    31   17   33 1
    32   18   19 ar
    33   18   34 1
    34   19   20 ar
    35   19   22 1
    36   20   21 ar
    37   20   35 1
    38   23   36 1
    39   23   37 1
    40   24   38 1
    41   24   39 1
    42   24   40 1
@<TRIPOS>MOLECULE
ZINC47128961
   54    57     0     0     0
SMALL
USER_CHARGES

@<TRIPOS>ATOM
      1 C1         -0.2275    1.3771    0.2061 C.3       1 <0>        -0.1307
      2 C2         -0.2403   -0.1504    0.2925 C.3       1 <0>         0.2244
      3 H1          0.1257   -0.5760   -0.6418 H         1 <0>         0.0822
      4 C3         -1.6614   -0.6414    0.5630 C.2       1 <0>        -0.1327
      5 C4         -2.7735   -0.1886   -0.1450 C.2       1 <0>        -0.1428
      6 C5         -4.0032   -0.6711    0.1461 C.2       1 <0>        -0.1724
      7 S1         -3.6450   -1.8177    1.4684 S.3       1 <0>         0.0399
      8 C6         -1.8907   -1.5659    1.5347 C.2       1 <0>        -0.1447
      9 C7         -0.8944   -2.2098    2.4431 C.3       1 <0>        -0.0569
     10 C8          0.5129   -1.9858    1.8685 C.3       1 <0>         0.1176
     11 N1          0.6086   -0.5929    1.4070 N.am      1 <0>        -0.6270
     12 C9          1.4621    0.2661    1.9987 C.2       1 <0>         0.7120
     13 O1          1.4765    1.4353    1.6655 O.2       1 <0>        -0.5762
     14 N2          2.2997   -0.1710    2.9600 N.am      1 <0>        -0.7418
     15 C10         3.1525    0.7805    3.6766 C.3       1 <0>         0.2037
     16 H2          3.4661    1.5718    2.9957 H         1 <0>         0.0985
     17 C11         2.3695    1.3904    4.8411 C.3       1 <0>        -0.1583
     18 C12         4.3673    0.0647    4.2084 C.ar      1 <0>        -0.1103
     19 C13         4.2421   -1.2063    4.7386 C.ar      1 <0>        -0.0924
     20 C14         5.3536   -1.8651    5.2267 C.ar      1 <0>        -0.1187
     21 C15         6.5977   -1.2497    5.1847 C.ar      1 <0>         0.1683
     22 C16         6.7201    0.0267    4.6516 C.ar      1 <0>        -0.1445
     23 C17         5.6057    0.6779    4.1599 C.ar      1 <0>        -0.0828
     24 N3          7.7258   -1.9143    5.6789 N.am      1 <0>        -0.6849
     25 C18         7.7899   -3.2597    5.6314 C.2       1 <0>         0.7079
     26 O2          6.9166   -3.8905    5.0676 O.2       1 <0>        -0.5676
     27 N4          8.8221   -3.9059    6.2089 N.am      1 <0>        -0.7122
     28 C19         8.8918   -5.3684    6.1573 C.3       1 <0>         0.0956
     29 C20         9.2866   -6.1025    7.4403 C.3       1 <0>        -0.1927
     30 C21        10.2738   -6.0143    6.2747 C.3       1 <0>        -0.1888
     31 H3          0.7627    1.7154   -0.0991 H         1 <0>         0.0826
     32 H4         -0.9654    1.7057   -0.5258 H         1 <0>         0.0457
     33 H5         -0.4708    1.7982    1.1816 H         1 <0>         0.0685
     34 H6         -2.6533    0.5478   -0.9258 H         1 <0>         0.1345
     35 H7         -4.9542   -0.4264   -0.3034 H         1 <0>         0.1876
     36 H8         -0.9602   -1.7614    3.4345 H         1 <0>         0.0878
     37 H9         -1.0967   -3.2788    2.5087 H         1 <0>         0.0944
     38 H10         1.2589   -2.1687    2.6418 H         1 <0>         0.0873
     39 H11         0.6791   -2.6618    1.0297 H         1 <0>         0.0820
     40 H12         2.3378   -1.1156    3.1772 H         1 <0>         0.3931
     41 H13         2.0559    0.5992    5.5220 H         1 <0>         0.0572
     42 H14         3.0040    2.0984    5.3743 H         1 <0>         0.0681
     43 H15         1.4908    1.9082    4.4565 H         1 <0>         0.0641
     44 H16         3.2742   -1.6842    4.7713 H         1 <0>         0.1210
     45 H17         5.2551   -2.8576    5.6410 H         1 <0>         0.1412
     46 H18         7.6863    0.5081    4.6178 H         1 <0>         0.1278
     47 H19         5.7010    1.6689    3.7412 H         1 <0>         0.1303
     48 H20         8.4615   -1.4067    6.0556 H         1 <0>         0.4081
     49 H21         9.5188   -3.4027    6.6586 H         1 <0>         0.3996
     50 H22         8.1646   -5.8509    5.5044 H         1 <0>         0.1413
     51 H23         9.4944   -5.4974    8.3228 H         1 <0>         0.0974
     52 H24         8.8189   -7.0683    7.6317 H         1 <0>         0.1049
     53 H25        10.4556   -6.9221    5.6994 H         1 <0>         0.1062
     54 H26        11.1311   -5.3512    6.3904 H         1 <0>         0.0978
@<TRIPOS>BOND
     1    1    2 1
     2    1   31 1
     3    1   32 1
     4    1   33 1
     5    2    3 1
     6    2   11 1
     7    2    4 1
     8    4    8 2
     9    4    5 1
    10    5    6 2
    11    5   34 1
    12    6    7 1
    13    6   35 1
    14    7    8 1
    15    8    9 1
    16    9   10 1
    17    9   36 1
    18    9   37 1
    19   10   11 1
    20   10   38 1
    21   10   39 1
    22   11   12 am
    23   12   13 2
    24   12   14 am
    25   14   15 1
    26   14   40 1
    27   15   16 1
    28   15   17 1
    29   15   18 1
    30   17   41 1
    31   17   42 1
    32   17   43 1
    33   18   23 ar
    34   18   19 ar
    35   19   20 ar
    36   19   44 1
    37   20   21 ar
    38   20   45 1
    39   21   22 ar
    40   21   24 1
    41   22   23 ar
    42   22   46 1
    43   23   47 1
    44   24   25 am
    45   24   48 1
    46   25   26 2
    47   25   27 am
    48   27   28 1
    49   27   49 1
    50   28   30 1
    51   28   29 1
    52   28   50 1
    53   29   30 1
    54   29   51 1
    55   29   52 1
    56   30   53 1
    57   30   54 1
@<TRIPOS>MOLECULE
ZINC53626418
   55    60     0     0     0
SMALL
USER_CHARGES

@<TRIPOS>ATOM
      1 C1         -0.0127    1.0858    0.0080 C.3       1 <0>        -0.0874
      2 C2         -0.7416    1.5850   -1.2129 C.2       1 <0>         0.1266
      3 N1         -2.0444    1.7976   -1.1992 N.2       1 <0>        -0.5186
      4 C3         -2.6735    2.2334   -2.2691 C.2       1 <0>         0.2724
      5 N2         -4.0275    2.5070   -2.4236 N.am      1 <0>        -0.6216
      6 C4         -4.8734    2.3277   -1.3898 C.2       1 <0>         0.5172
      7 O1         -4.4532    1.9277   -0.3247 O.2       1 <0>        -0.4621
      8 C5         -6.3415    2.6242   -1.5573 C.3       1 <0>        -0.0622
      9 C6         -6.5248    4.0958   -1.9340 C.3       1 <0>        -0.1033
     10 C7         -8.0152    4.3969   -2.1040 C.3       1 <0>        -0.0833
     11 C8         -8.7462    4.1118   -0.7905 C.3       1 <0>        -0.1114
     12 C9         -8.5629    2.6403   -0.4138 C.3       1 <0>        -0.0861
     13 C10        -7.0724    2.3392   -0.2438 C.3       1 <0>        -0.0888
     14 C11        -9.1390    1.7549   -1.5206 C.3       1 <0>        -0.1112
     15 C12        -8.4080    2.0400   -2.8341 C.3       1 <0>        -0.0833
     16 C13        -8.5913    3.5115   -3.2108 C.3       1 <0>        -0.1108
     17 C14        -6.9176    1.7389   -2.6641 C.3       1 <0>        -0.1030
     18 S1         -1.4406    2.3800   -3.4054 S.3       1 <0>         0.1567
     19 C15        -0.0876    1.8412   -2.3725 C.2       1 <0>        -0.2320
     20 H1         -4.3636    2.8269   -3.2754 H         1 <0>         0.4243
     21 C16         1.3771    1.7063   -2.7000 C.3       1 <0>         0.3064
     22 H2          1.5915    0.7043   -3.0717 H         1 <0>         0.0780
     23 N3          1.7781    2.7234   -3.6984 N.3       1 <0>        -0.6841
     24 C17         3.1404    3.1581   -3.3217 C.3       1 <0>         0.3008
     25 H3          3.1467    4.2253   -3.1000 H         1 <0>         0.1482
     26 N4          3.4909    2.3818   -2.1091 N.3       1 <0>        -0.4673
     27 O2          2.1823    1.9938   -1.5343 O.3       1 <0>        -0.1842
     28 C18         4.1097    2.8532   -4.4346 C.2       1 <0>        -0.2182
     29 C19         5.4299    2.5550   -4.3589 C.2       1 <0>        -0.1259
     30 C20         6.1291    2.3075   -5.5252 C.2       1 <0>        -0.1614
     31 C21         5.4741    2.3702   -6.7103 C.2       1 <0>        -0.1573
     32 S2          3.8157    2.7831   -6.1941 S.3       1 <0>         0.0689
     33 H4          0.0021   -0.0041    0.0020 H         1 <0>         0.0741
     34 H5          1.0099    1.4631    0.0003 H         1 <0>         0.0924
     35 H6         -0.5229    1.4373    0.9048 H         1 <0>         0.0775
     36 H7         -6.1143    4.7265   -1.1454 H         1 <0>         0.0715
     37 H8         -6.0040    4.2989   -2.8697 H         1 <0>         0.0663
     38 H9         -8.1458    5.4452   -2.3724 H         1 <0>         0.0770
     39 H10        -8.3357    4.7425   -0.0020 H         1 <0>         0.0644
     40 H11        -9.8080    4.3263   -0.9116 H         1 <0>         0.0663
     41 H12        -9.0836    2.4372    0.5220 H         1 <0>         0.0768
     42 H13        -6.9418    1.2908    0.0246 H         1 <0>         0.0718
     43 H14        -6.6620    2.9699    0.5448 H         1 <0>         0.0721
     44 H15        -9.0084    0.7065   -1.2523 H         1 <0>         0.0642
     45 H16       -10.2008    1.9694   -1.6418 H         1 <0>         0.0663
     46 H17        -8.8185    1.4092   -3.6227 H         1 <0>         0.0768
     47 H18        -9.6531    3.7260   -3.3320 H         1 <0>         0.0673
     48 H19        -8.0706    3.7146   -4.1466 H         1 <0>         0.0641
     49 H20        -6.3968    1.9420   -3.5999 H         1 <0>         0.0660
     50 H21        -6.7870    0.6905   -2.3958 H         1 <0>         0.0711
     51 H22         1.7662    2.3389   -4.6311 H         1 <0>         0.3567
     52 H23         4.0357    1.5664   -2.3467 H         1 <0>         0.3480
     53 H24         5.9280    2.5118   -3.4016 H         1 <0>         0.1409
     54 H25         7.1817    2.0680   -5.4929 H         1 <0>         0.1408
     55 H26         5.8555    2.2083   -7.7076 H         1 <0>         0.1916
@<TRIPOS>BOND
     1    1   33 1
     2    1   34 1
     3    1   35 1
     4    1    2 1
     5    2    3 1
     6    2   19 2
     7    3    4 2
     8    4   18 1
     9    4    5 1
    10    5   20 1
    11    5    6 am
    12    6    8 1
    13    6    7 2
    14    8   13 1
    15    8   17 1
    16    8    9 1
    17    9   10 1
    18    9   36 1
    19    9   37 1
    20   10   16 1
    21   10   11 1
    22   10   38 1
    23   11   12 1
    24   11   39 1
    25   11   40 1
    26   12   13 1
    27   12   14 1
    28   12   41 1
    29   13   42 1
    30   13   43 1
    31   14   15 1
    32   14   44 1
    33   14   45 1
    34   15   16 1
    35   15   17 1
    36   15   46 1
    37   16   47 1
    38   16   48 1
    39   17   49 1
    40   17   50 1
    41   18   19 1
    42   19   21 1
    43   21   22 1
    44   21   27 1
    45   21   23 1
    46   23   24 1
    47   23   51 1
    48   24   25 1
    49   24   26 1
    50   24   28 1
    51   26   27 1
    52   26   52 1
    53   28   32 1
    54   28   29 2
    55   29   30 1
    56   29   53 1
    57   30   31 2
    58   30   54 1
    59   31   32 1
    60   31   55 1
@<TRIPOS>MOLECULE
ZINC04786585
   44    47     0     0     0
SMALL
USER_CHARGES
2-amino-3-(4-fluorobenzoyl)-N-(4-fluorophenyl)-indolizine-1-carboxamide
@<TRIPOS>ATOM
      1 C1         -0.9986    1.7668   -0.6494 C.2       1 <0>        -0.0872
      2 C2         -1.0098    3.1661   -0.6053 C.2       1 <0>        -0.1425
      3 C3          0.1380    3.8495   -0.3896 C.2       1 <0>         0.0613
      4 N1          1.3171    3.1923   -0.2071 N.pl3     1 <0>        -0.2879
      5 C4          1.3541    1.8287   -0.2400 C.2       1 <0>         0.1506
      6 C5          0.1786    1.0998   -0.4617 C.2       1 <0>        -0.1102
      7 C6          2.6893    1.4154   -0.0233 C.2       1 <0>        -0.3074
      8 C7          3.4620    2.5817    0.1425 C.2       1 <0>         0.2892
      9 C8          2.5992    3.6691    0.0261 C.2       1 <0>        -0.2112
     10 C9          2.9665    5.0256    0.1287 C.2       1 <0>         0.4875
     11 O1          2.9131    5.5917    1.2073 O.2       1 <0>        -0.4296
     12 C10         3.4170    5.7627   -1.0719 C.ar      1 <0>        -0.1833
     13 C11         3.3907    5.1452   -2.3237 C.ar      1 <0>        -0.0287
     14 C12         3.8058    5.8387   -3.4405 C.ar      1 <0>        -0.1672
     15 C13         4.2604    7.1430   -3.3203 C.ar      1 <0>         0.1365
     16 C14         4.2938    7.7589   -2.0786 C.ar      1 <0>        -0.1676
     17 C15         3.8752    7.0763   -0.9564 C.ar      1 <0>        -0.0305
     18 F1          4.6718    7.8163   -4.4169 F         1 <0>        -0.1308
     19 N2          4.8263    2.6368    0.3780 N.pl3     1 <0>        -0.8472
     20 C16         3.1760    0.0371    0.0203 C.2       1 <0>         0.6062
     21 O2          3.5565   -0.5068   -1.0005 O.2       1 <0>        -0.5104
     22 N3          3.2035   -0.6311    1.1905 N.am      1 <0>        -0.6662
     23 C17         3.5667   -1.9826    1.2162 C.ar      1 <0>         0.1372
     24 C18         3.2418   -2.8103    0.1496 C.ar      1 <0>        -0.0935
     25 C19         3.6066   -4.1422    0.1743 C.ar      1 <0>        -0.1320
     26 C20         4.2854   -4.6550    1.2669 C.ar      1 <0>         0.0823
     27 C21         4.6049   -3.8327    2.3343 C.ar      1 <0>        -0.1324
     28 C22         4.2474   -2.4989    2.3109 C.ar      1 <0>        -0.1174
     29 F2          4.6368   -5.9592    1.2914 F         1 <0>        -0.1393
     30 H1         -1.9128    1.2197   -0.8264 H         1 <0>         0.1442
     31 H2         -1.9366    3.7019   -0.7482 H         1 <0>         0.1551
     32 H3          0.1191    4.9289   -0.3621 H         1 <0>         0.1637
     33 H4          0.2036    0.0205   -0.4884 H         1 <0>         0.1465
     34 H5          3.0413    4.1276   -2.4177 H         1 <0>         0.1400
     35 H6          3.7811    5.3637   -4.4101 H         1 <0>         0.1438
     36 H7          4.6482    8.7753   -1.9904 H         1 <0>         0.1448
     37 H8          3.9013    7.5571    0.0103 H         1 <0>         0.1455
     38 H9          5.2534    3.4890    0.5576 H         1 <0>         0.4046
     39 H10         5.3543    1.8233    0.3634 H         1 <0>         0.4088
     40 H11         2.9715   -0.1754    2.0148 H         1 <0>         0.4145
     41 H12         2.7082   -2.4119   -0.7006 H         1 <0>         0.1445
     42 H13         3.3587   -4.7851   -0.6573 H         1 <0>         0.1397
     43 H14         5.1344   -4.2346    3.1855 H         1 <0>         0.1400
     44 H15         4.4974   -1.8577    3.1433 H         1 <0>         0.1363
@<TRIPOS>BOND
     1    1    6 2
     2    1    2 1
     3    1   30 1
     4    2    3 2
     5    2   31 1
     6    3    4 1
     7    3   32 1
     8    4    9 1
     9    4    5 1
    10    5    6 1
    11    5    7 2
    12    6   33 1
    13    7    8 1
    14    7   20 1
    15    8    9 2
    16    8   19 1
    17    9   10 1
    18   10   11 2
    19   10   12 1
    20   12   17 ar
    21   12   13 ar
    22   13   14 ar
    23   13   34 1
    24   14   15 ar
    25   14   35 1
    26   15   16 ar
    27   15   18 1
    28   16   17 ar
    29   16   36 1
    30   17   37 1
    31   19   38 1
    32   19   39 1
    33   20   21 2
    34   20   22 am
    35   22   23 1
    36   22   40 1
    37   23   28 ar
    38   23   24 ar
    39   24   25 ar
    40   24   41 1
    41   25   26 ar
    42   25   42 1
    43   26   27 ar
    44   26   29 1
    45   27   28 ar
    46   27   43 1
    47   28   44 1
@<TRIPOS>MOLECULE
ZINC04246357
   40    42     0     0     0
SMALL
USER_CHARGES
1-naphthylcarbamoylmethyl 2-amino-5-bromo-benzoate
@<TRIPOS>ATOM
      1 C1          7.1815   12.3353   -0.9591 C.ar      1 <0>        -0.1149
      2 C2          7.3751   10.9757   -1.1952 C.ar      1 <0>        -0.1118
      3 C3          6.4830   10.0522   -0.7424 C.ar      1 <0>        -0.1126
      4 C4          5.3532   10.4720   -0.0228 C.ar      1 <0>        -0.0641
      5 C5          5.1531   11.8544    0.2141 C.ar      1 <0>        -0.0348
      6 C6          6.0957   12.7789   -0.2689 C.ar      1 <0>        -0.1022
      7 C7          4.0205   12.2765    0.9306 C.ar      1 <0>        -0.1227
      8 C8          3.1237   11.3590    1.3867 C.ar      1 <0>        -0.0918
      9 C9          3.3071    9.9989    1.1560 C.ar      1 <0>        -0.1296
     10 C10         4.4046    9.5443    0.4572 C.ar      1 <0>         0.1512
     11 N1          4.5791    8.1777    0.2312 N.am      1 <0>        -0.6618
     12 C11         3.5122    7.3541    0.2244 C.2       1 <0>         0.5139
     13 O1          2.3924    7.8116    0.3131 O.2       1 <0>        -0.4864
     14 C12         3.7106    5.8649    0.1064 C.3       1 <0>         0.0521
     15 O2          2.4190    5.2018    0.1224 O.3       1 <0>        -0.3255
     16 C13         2.4201    3.8576    0.0248 C.2       1 <0>         0.5269
     17 O3          3.4717    3.2562   -0.0711 O.2       1 <0>        -0.5147
     18 C14         1.1467    3.1175    0.0342 C.ar      1 <0>        -0.2085
     19 C15        -0.0686    3.8086    0.0329 C.ar      1 <0>         0.0170
     20 C16        -1.2563    3.1099    0.0413 C.ar      1 <0>        -0.1617
     21 C17        -1.2533    1.7229    0.0458 C.ar      1 <0>        -0.0055
     22 C18        -0.0623    1.0269    0.0526 C.ar      1 <0>        -0.1988
     23 C19         1.1457    1.7136    0.0442 C.ar      1 <0>         0.2955
     24 N2          2.3457    1.0148    0.0452 N.pl3     1 <0>        -0.8532
     25 Br1        -2.8988    4.0470    0.0388 Br        1 <0>        -0.0441
     26 H1          7.9041   13.0476   -1.3291 H         1 <0>         0.1253
     27 H2          8.2456   10.6497   -1.7451 H         1 <0>         0.1249
     28 H3          6.6457    9.0016   -0.9327 H         1 <0>         0.1206
     29 H4          5.9590   13.8356   -0.0928 H         1 <0>         0.1305
     30 H5          3.8615   13.3279    1.1197 H         1 <0>         0.1295
     31 H6          2.2562   11.6922    1.9368 H         1 <0>         0.1290
     32 H7          2.5809    9.2916    1.5285 H         1 <0>         0.1474
     33 H8          5.4682    7.8209    0.0792 H         1 <0>         0.4131
     34 H9          4.3112    5.5109    0.9444 H         1 <0>         0.1097
     35 H10         4.2232    5.6396   -0.8288 H         1 <0>         0.1082
     36 H11        -0.0766    4.8885    0.0249 H         1 <0>         0.1496
     37 H12        -2.1895    1.1844    0.0478 H         1 <0>         0.1408
     38 H13        -0.0688   -0.0530    0.0599 H         1 <0>         0.1421
     39 H14         2.3805    0.1101   -0.3031 H         1 <0>         0.4027
     40 H15         3.1492    1.4313    0.3941 H         1 <0>         0.4146
@<TRIPOS>BOND
     1    1    6 ar
     2    1    2 ar
     3    1   26 1
     4    2    3 ar
     5    2   27 1
     6    3    4 ar
     7    3   28 1
     8    4   10 ar
     9    4    5 ar
    10    5    6 ar
    11    5    7 ar
    12    6   29 1
    13    7    8 ar
    14    7   30 1
    15    8    9 ar
    16    8   31 1
    17    9   10 ar
    18    9   32 1
    19   10   11 1
    20   11   12 am
    21   11   33 1
    22   12   13 2
    23   12   14 1
    24   14   15 1
    25   14   34 1
    26   14   35 1
    27   15   16 1
    28   16   17 2
    29   16   18 1
    30   18   23 ar
    31   18   19 ar
    32   19   20 ar
    33   19   36 1
    34   20   21 ar
    35   20   25 1
    36   21   22 ar
    37   21   37 1
    38   22   23 ar
    39   22   38 1
    40   23   24 1
    41   24   39 1
    42   24   40 1
@<TRIPOS>MOLECULE
ZINC01510852
   58    62     0     0     0
SMALL
USER_CHARGES
(5R,7S)-N-[(3,4-dihydroxyphenyl)methyleneamino]-3-(p-tolyl)adamantane-1-carboxamide
@<TRIPOS>ATOM
      1 C1         -1.2277    9.6184    6.0324 C.3       1 <0>        -0.1188
      2 C2         -0.5215    9.1324    4.7930 C.ar      1 <0>        -0.0891
      3 C3         -0.0167   10.0427    3.8833 C.ar      1 <0>        -0.1176
      4 C4          0.6307    9.5969    2.7462 C.ar      1 <0>        -0.1094
      5 C5          0.7733    8.2408    2.5188 C.ar      1 <0>        -0.0749
      6 C6          0.2639    7.3305    3.4259 C.ar      1 <0>        -0.1178
      7 C7         -0.3788    7.7764    4.5656 C.ar      1 <0>        -0.1186
      8 C8          1.4787    7.7548    1.2789 C.3       1 <0>        -0.0072
      9 C9          0.7387    8.2617    0.0394 C.3       1 <0>        -0.1004
     10 C10         1.4548    7.7682   -1.2194 C.3       1 <0>        -0.0832
     11 H1          0.9227    8.1325   -2.1106 H         1 <0>         0.0788
     12 C11         2.8902    8.2978   -1.2303 C.3       1 <0>        -0.1121
     13 C12         3.6302    7.7910    0.0092 C.3       1 <0>        -0.0858
     14 H2          4.6622    8.1718    0.0014 H         1 <0>         0.0794
     15 C13         2.9141    8.2844    1.2680 C.3       1 <0>        -0.1015
     16 C14         3.6510    6.2612    0.0008 C.3       1 <0>        -0.0903
     17 C15         2.2156    5.7316    0.0117 C.3       1 <0>        -0.0601
     18 C16         1.4756    6.2384   -1.2278 C.3       1 <0>        -0.1026
     19 C17         1.4994    6.2250    1.2705 C.3       1 <0>        -0.0968
     20 C18         2.2360    4.2247    0.0034 C.2       1 <0>         0.5421
     21 O1          3.2947    3.6325   -0.0099 O.2       1 <0>        -0.5017
     22 N1          1.0781    3.5350    0.0107 N.am      1 <0>        -0.5919
     23 N2          1.0971    2.1342    0.0030 N.2       1 <0>        -0.2259
     24 C19        -0.0179    1.4700    0.0101 C.2       1 <0>         0.1085
     25 C20         0.0021   -0.0041    0.0020 C.ar      1 <0>        -0.0631
     26 C21         1.2204   -0.6879   -0.0133 C.ar      1 <0>        -0.0723
     27 C22         1.2369   -2.0667   -0.0209 C.ar      1 <0>        -0.1353
     28 C23         0.0458   -2.7780   -0.0134 C.ar      1 <0>         0.1451
     29 C24        -1.1727   -2.1029    0.0023 C.ar      1 <0>         0.0583
     30 C25        -1.1972   -0.7208    0.0154 C.ar      1 <0>        -0.1454
     31 O2         -2.3382   -2.8036    0.0101 O.3       1 <0>        -0.5191
     32 O3          0.0678   -4.1372   -0.0209 O.3       1 <0>        -0.5051
     33 H3         -1.2425   10.7183    6.0385 H         1 <0>         0.0652
     34 H4         -0.6963    9.2539    6.9239 H         1 <0>         0.0695
     35 H5         -2.2597    9.2377    6.0395 H         1 <0>         0.0693
     36 H6         -0.1284   11.1021    4.0608 H         1 <0>         0.1208
     37 H7          1.0247   10.3080    2.0353 H         1 <0>         0.1209
     38 H8          0.3715    6.2711    3.2460 H         1 <0>         0.1225
     39 H9         -0.7735    7.0652    5.2762 H         1 <0>         0.1198
     40 H10        -0.2933    7.8810    0.0473 H         1 <0>         0.0655
     41 H11         0.7238    9.3616    0.0454 H         1 <0>         0.0697
     42 H12         3.4050    7.9430   -2.1353 H         1 <0>         0.0661
     43 H13         2.8753    9.3977   -1.2243 H         1 <0>         0.0670
     44 H14         2.8992    9.3843    1.2741 H         1 <0>         0.0687
     45 H15         3.4462    7.9200    2.1592 H         1 <0>         0.0665
     46 H16         4.1659    5.9065   -0.9042 H         1 <0>         0.0734
     47 H17         4.1831    5.8968    0.8919 H         1 <0>         0.0727
     48 H18         0.4436    5.8576   -1.2200 H         1 <0>         0.0655
     49 H19         1.9905    5.8836   -2.1328 H         1 <0>         0.0722
     50 H20         2.0314    5.8606    2.1617 H         1 <0>         0.0745
     51 H21         0.4674    5.8443    1.2783 H         1 <0>         0.0684
     52 H22         0.1181    4.0720    0.0227 H         1 <0>         0.4000
     53 H23        -0.9779    2.0069    0.0222 H         1 <0>         0.1203
     54 H24         2.1491   -0.1366   -0.0188 H         1 <0>         0.1415
     55 H25         2.1793   -2.5941   -0.0324 H         1 <0>         0.1394
     56 H26        -2.1412   -0.1963    0.0321 H         1 <0>         0.1333
     57 H27        -3.3003   -2.2706    0.0225 H         1 <0>         0.4405
     58 H28        -0.8758   -4.7026   -0.0150 H         1 <0>         0.4405
@<TRIPOS>BOND
     1    1    2 1
     2    1   33 1
     3    1   34 1
     4    1   35 1
     5    2    7 ar
     6    2    3 ar
     7    3    4 ar
     8    3   36 1
     9    4    5 ar
    10    4   37 1
    11    5    6 ar
    12    5    8 1
    13    6    7 ar
    14    6   38 1
    15    7   39 1
    16    8   15 1
    17    8   19 1
    18    8    9 1
    19    9   10 1
    20    9   40 1
    21    9   41 1
    22   10   11 1
    23   10   18 1
    24   10   12 1
    25   12   13 1
    26   12   42 1
    27   12   43 1
    28   13   14 1
    29   13   15 1
    30   13   16 1
    31   15   44 1
    32   15   45 1
    33   16   17 1
    34   16   46 1
    35   16   47 1
    36   17   18 1
    37   17   19 1
    38   17   20 1
    39   18   48 1
    40   18   49 1
    41   19   50 1
    42   19   51 1
    43   20   21 2
    44   20   22 am
    45   22   23 1
    46   22   52 1
    47   23   24 2
    48   24   25 1
    49   24   53 1
    50   25   30 ar
    51   25   26 ar
    52   26   27 ar
    53   26   54 1
    54   27   28 ar
    55   27   55 1
    56   28   29 ar
    57   28   32 1
    58   29   30 ar
    59   29   31 1
    60   30   56 1
    61   31   57 1
    62   32   58 1
@<TRIPOS>MOLECULE
ZINC44087618
   52    55     0     0     0
SMALL
USER_CHARGES

@<TRIPOS>ATOM
      1 C1          1.6627    1.1273    0.8664 C.ar      1 <0>        -0.0808
      2 C2          1.1883    2.1538    0.0723 C.ar      1 <0>        -0.1354
      3 C3          0.4121    1.8685   -1.0438 C.ar      1 <0>         0.1634
      4 C4          0.1138    0.5510   -1.3612 C.ar      1 <0>        -0.1437
      5 C5          0.5920   -0.4772   -0.5622 C.ar      1 <0>         0.1807
      6 C6          1.3674   -0.1852    0.5531 C.ar      1 <0>        -0.1593
      7 N1          0.2929   -1.8072   -0.8787 N.am      1 <0>        -0.6841
      8 C7         -0.9096   -2.1219   -1.3997 C.2       1 <0>         0.7082
      9 O1         -1.7031   -1.2420   -1.6724 O.2       1 <0>        -0.5653
     10 N2         -1.2324   -3.4120   -1.6186 N.am      1 <0>        -0.7355
     11 C8         -2.5780   -3.7622   -2.0802 C.3       1 <0>         0.2580
     12 H1         -3.3002   -3.0634   -1.6582 H         1 <0>         0.1117
     13 C9         -2.6279   -3.6889   -3.5846 C.2       1 <0>        -0.1479
     14 C10        -3.6125   -3.2100   -4.3836 C.2       1 <0>        -0.1453
     15 C11        -3.4388   -3.2430   -5.7545 C.2       1 <0>        -0.1538
     16 C12        -2.2890   -3.7533   -6.2593 C.2       1 <0>        -0.1754
     17 S1         -1.4023   -4.2031   -4.7765 S.3       1 <0>         0.0365
     18 C13        -2.9187   -5.1834   -1.6272 C.3       1 <0>        -0.0956
     19 C14        -4.3331   -5.5667   -2.1092 C.3       1 <0>        -0.1126
     20 C15        -4.9157   -6.4078   -0.9463 C.3       1 <0>        -0.1255
     21 C16        -4.3722   -5.6795    0.3080 C.3       1 <0>        -0.1259
     22 C17        -2.9435   -5.2550   -0.0904 C.3       1 <0>        -0.1204
     23 N3         -0.0687    2.9086   -1.8469 N.am      1 <0>        -0.6690
     24 C18         0.6704    4.0219   -2.0217 C.2       1 <0>         0.5443
     25 O2          1.7900    4.0853   -1.5596 O.2       1 <0>        -0.5183
     26 C19         0.1058    5.1881   -2.7913 C.3       1 <0>        -0.1994
     27 C20         0.7306    5.5060   -4.1513 C.3       1 <0>        -0.1511
     28 C21         0.9941    6.4230   -2.9552 C.3       1 <0>        -0.1440
     29 H2          2.2694    1.3515    1.7313 H         1 <0>         0.1311
     30 H3          1.4208    3.1790    0.3199 H         1 <0>         0.1342
     31 H4         -0.4898    0.3266   -2.2283 H         1 <0>         0.1432
     32 H5          1.7396   -0.9853    1.1757 H         1 <0>         0.1266
     33 H6          0.9510   -2.5026   -0.7230 H         1 <0>         0.4084
     34 H7         -0.5739   -4.1086   -1.4705 H         1 <0>         0.3998
     35 H8         -4.5194   -2.8090   -3.9556 H         1 <0>         0.1317
     36 H9         -4.2079   -2.8682   -6.4136 H         1 <0>         0.1333
     37 H10        -1.9862   -3.8572   -7.2908 H         1 <0>         0.1843
     38 H11        -2.1855   -5.8867   -2.0220 H         1 <0>         0.0813
     39 H12        -4.9356   -4.6732   -2.2729 H         1 <0>         0.0706
     40 H13        -4.2773   -6.1625   -3.0202 H         1 <0>         0.0695
     41 H14        -6.0054   -6.3874   -0.9629 H         1 <0>         0.0686
     42 H15        -4.5468   -7.4326   -0.9881 H         1 <0>         0.0680
     43 H16        -4.9809   -4.8042    0.5347 H         1 <0>         0.0664
     44 H17        -4.3448   -6.3576    1.1610 H         1 <0>         0.0665
     45 H18        -2.2230   -5.9938    0.2606 H         1 <0>         0.0677
     46 H19        -2.7128   -4.2774    0.3328 H         1 <0>         0.0684
     47 H20        -0.9340    2.8282   -2.2779 H         1 <0>         0.4137
     48 H21        -0.9662    5.3505   -2.6793 H         1 <0>         0.1281
     49 H22         1.5501    4.8717   -4.4893 H         1 <0>         0.1005
     50 H23         0.0696    5.8776   -4.9343 H         1 <0>         0.1074
     51 H24         0.5065    7.3978   -2.9513 H         1 <0>         0.1063
     52 H25         1.9869    6.3920   -2.5063 H         1 <0>         0.1095
@<TRIPOS>BOND
     1    1    6 ar
     2    1    2 ar
     3    1   29 1
     4    2    3 ar
     5    2   30 1
     6    3    4 ar
     7    3   23 1
     8    4    5 ar
     9    4   31 1
    10    5    6 ar
    11    5    7 1
    12    6   32 1
    13    7    8 am
    14    7   33 1
    15    8    9 2
    16    8   10 am
    17   10   11 1
    18   10   34 1
    19   11   12 1
    20   11   13 1
    21   11   18 1
    22   13   17 1
    23   13   14 2
    24   14   15 1
    25   14   35 1
    26   15   16 2
    27   15   36 1
    28   16   17 1
    29   16   37 1
    30   18   22 1
    31   18   19 1
    32   18   38 1
    33   19   20 1
    34   19   39 1
    35   19   40 1
    36   20   21 1
    37   20   41 1
    38   20   42 1
    39   21   22 1
    40   21   43 1
    41   21   44 1
    42   22   45 1
    43   22   46 1
    44   23   24 am
    45   23   47 1
    46   24   25 2
    47   24   26 1
    48   26   28 1
    49   26   27 1
    50   26   48 1
    51   27   28 1
    52   27   49 1
    53   27   50 1
    54   28   51 1
    55   28   52 1
@<TRIPOS>MOLECULE
ZINC63878215
   50    52     0     0     0
SMALL
USER_CHARGES

@<TRIPOS>ATOM
      1 C1          0.1528    1.6916    0.1431 C.3       1 <0>        -0.1193
      2 C2          0.2582    0.1932    0.0217 C.ar      1 <0>        -0.0739
      3 C3          0.4276   -0.3871   -1.2216 C.ar      1 <0>        -0.1036
      4 C4          0.5254   -1.7583   -1.3407 C.ar      1 <0>        -0.0956
      5 C5          0.4528   -2.5648   -0.2034 C.ar      1 <0>        -0.1153
      6 C6          0.2819   -1.9798    1.0509 C.ar      1 <0>        -0.1128
      7 C7          0.1905   -0.6004    1.1607 C.ar      1 <0>         0.1477
      8 N1          0.0250   -0.0089    2.4155 N.pl3     1 <0>        -1.0524
      9 S1          0.7637   -0.6653    3.7443 S.o2      1 <0>         2.6853
     10 O1          0.5185    0.2233    4.8257 O.2       1 <0>        -0.9468
     11 O2          0.3868   -2.0349    3.7833 O.2       1 <0>        -0.9393
     12 C8          2.4999   -0.6290    3.4463 C.ar      1 <0>        -0.6804
     13 C9          3.1167   -1.6978    2.8233 C.ar      1 <0>        -0.0105
     14 C10         4.4789   -1.6693    2.5895 C.ar      1 <0>        -0.1368
     15 C11         5.2241   -0.5719    2.9783 C.ar      1 <0>        -0.0130
     16 C12         4.6071    0.4973    3.6005 C.ar      1 <0>        -0.1364
     17 C13         3.2443    0.4706    3.8304 C.ar      1 <0>        -0.0140
     18 C14         6.7092   -0.5412    2.7243 C.3       1 <0>        -0.0573
     19 C15         7.4517   -0.4091    4.0555 C.3       1 <0>        -0.1120
     20 C16         8.9595   -0.3780    3.7977 C.3       1 <0>        -0.1201
     21 C17         9.2994    0.8160    2.9034 C.3       1 <0>        -0.1219
     22 C18         8.5570    0.6838    1.5722 C.3       1 <0>        -0.1200
     23 C19         7.0492    0.6527    1.8300 C.3       1 <0>        -0.1103
     24 C20         0.5563   -4.0345   -0.3285 C.2       1 <0>         0.5604
     25 O3          0.4929   -4.7348    0.6630 O.2       1 <0>        -0.5272
     26 N2          0.7210   -4.5976   -1.5419 N.am      1 <0>        -0.8505
     27 H1          1.1478    2.1161    0.2771 H         1 <0>         0.0790
     28 H2         -0.2970    2.0987   -0.7625 H         1 <0>         0.0761
     29 H3         -0.4685    1.9437    1.0024 H         1 <0>         0.0674
     30 H4          0.4833    0.2349   -2.1027 H         1 <0>         0.1366
     31 H5          0.6577   -2.2077   -2.3138 H         1 <0>         0.1310
     32 H6          0.2248   -2.5987    1.9342 H         1 <0>         0.1759
     33 H7         -0.5226    0.7864    2.5084 H         1 <0>         0.4280
     34 H8          2.5345   -2.5552    2.5195 H         1 <0>         0.1408
     35 H9          4.9609   -2.5046    2.1033 H         1 <0>         0.1328
     36 H10         5.1894    1.3545    3.9046 H         1 <0>         0.1331
     37 H11         2.7616    1.3075    4.3132 H         1 <0>         0.1402
     38 H12         7.0123   -1.4639    2.2293 H         1 <0>         0.0837
     39 H13         7.1486    0.5135    4.5505 H         1 <0>         0.0665
     40 H14         7.2095   -1.2597    4.6926 H         1 <0>         0.0653
     41 H15         9.4884   -0.2839    4.7461 H         1 <0>         0.0650
     42 H16         9.2625   -1.3006    3.3027 H         1 <0>         0.0632
     43 H17         8.9964    1.7386    3.3984 H         1 <0>         0.0622
     44 H18        10.3736    0.8381    2.7197 H         1 <0>         0.0629
     45 H19         8.7992    1.5344    0.9351 H         1 <0>         0.0646
     46 H20         8.8600   -0.2388    1.0771 H         1 <0>         0.0631
     47 H21         6.5202    0.5586    0.8816 H         1 <0>         0.0641
     48 H22         6.7461    1.5754    2.3250 H         1 <0>         0.0661
     49 H23         0.7716   -4.0388   -2.3331 H         1 <0>         0.4008
     50 H24         0.7889   -5.5617   -1.6239 H         1 <0>         0.4074
@<TRIPOS>BOND
     1    1    2 1
     2    1   27 1
     3    1   28 1
     4    1   29 1
     5    2    7 ar
     6    2    3 ar
     7    3    4 ar
     8    3   30 1
     9    4    5 ar
    10    4   31 1
    11    5    6 ar
    12    5   24 1
    13    6    7 ar
    14    6   32 1
    15    7    8 1
    16    8    9 1
    17    8   33 1
    18    9   10 2
    19    9   11 2
    20    9   12 1
    21   12   17 ar
    22   12   13 ar
    23   13   14 ar
    24   13   34 1
    25   14   15 ar
    26   14   35 1
    27   15   16 ar
    28   15   18 1
    29   16   17 ar
    30   16   36 1
    31   17   37 1
    32   18   23 1
    33   18   19 1
    34   18   38 1
    35   19   20 1
    36   19   39 1
    37   19   40 1
    38   20   21 1
    39   20   41 1
    40   20   42 1
    41   21   22 1
    42   21   43 1
    43   21   44 1
    44   22   23 1
    45   22   45 1
    46   22   46 1
    47   23   47 1
    48   23   48 1
    49   24   25 2
    50   24   26 am
    51   26   49 1
    52   26   50 1
@<TRIPOS>MOLECULE
ZINC04669190
   53    56     0     0     0
SMALL
USER_CHARGES
3-(hydroxyBLAHylidene)amino-1-(m-tolyl)thiourea
@<TRIPOS>ATOM
      1 C1          2.4202   -4.7094    2.4860 C.3       1 <0>        -0.1133
      2 C2          1.7962   -4.0456    1.2855 C.ar      1 <0>        -0.0834
      3 C3          1.2444   -4.8168    0.2788 C.ar      1 <0>        -0.1099
      4 C4          0.6712   -4.2118   -0.8245 C.ar      1 <0>        -0.1093
      5 C5          0.6477   -2.8343   -0.9242 C.ar      1 <0>        -0.0739
      6 C6          1.2005   -2.0570    0.0851 C.ar      1 <0>         0.1148
      7 C7          1.7806   -2.6682    1.1895 C.ar      1 <0>        -0.1186
      8 N1          1.1783   -0.6620   -0.0127 N.pl3     1 <0>        -0.6088
      9 C8          0.0487   -0.0308   -0.3898 C.2       1 <0>         0.5853
     10 S1         -1.3259   -0.9399   -0.8536 S.2       1 <0>        -0.5897
     11 N2          0.0012    1.3161   -0.4018 N.pl3     1 <0>        -0.5339
     12 N3          1.1261    2.0600   -0.0223 N.2       1 <0>        -0.2805
     13 C9          1.0804    3.3572   -0.0339 C.2       1 <0>         0.1878
     14 C10        -0.1691    4.1086   -0.4577 C.3       1 <0>        -0.1538
     15 C11         0.2811    5.3130   -1.2898 C.3       1 <0>         0.1364
     16 C12         1.0111    4.8152   -2.5383 C.3       1 <0>        -0.1456
     17 C13         1.4557    6.0131   -3.3800 C.3       1 <0>        -0.1152
     18 C14         0.2292    6.8279   -3.7959 C.3       1 <0>        -0.1219
     19 C15        -0.5013    7.3249   -2.5470 C.3       1 <0>        -0.1185
     20 C16        -0.9461    6.1263   -1.7061 C.3       1 <0>        -0.1053
     21 O1          1.1568    6.1302   -0.5150 O.3       1 <0>        -0.2923
     22 C17         2.2284    5.5550    0.0856 C.ar      1 <0>         0.1635
     23 C18         2.2454    4.1806    0.3593 C.ar      1 <0>        -0.1203
     24 C19         3.3426    3.6023    0.9918 C.ar      1 <0>        -0.0669
     25 C20         4.4233    4.3938    1.3459 C.ar      1 <0>         0.0692
     26 C21         4.4082    5.7540    1.0688 C.ar      1 <0>        -0.0832
     27 C22         3.3195    6.3316    0.4434 C.ar      1 <0>        -0.1357
     28 O2          5.4989    3.8380    1.9651 O.3       1 <0>        -0.4932
     29 H1          3.4779   -4.8888    2.2930 H         1 <0>         0.0711
     30 H2          2.3145   -4.0609    3.3557 H         1 <0>         0.0652
     31 H3          1.9197   -5.6585    2.6775 H         1 <0>         0.0692
     32 H4          1.2615   -5.8940    0.3544 H         1 <0>         0.1252
     33 H5          0.2418   -4.8168   -1.6092 H         1 <0>         0.1293
     34 H6          0.2002   -2.3623   -1.7864 H         1 <0>         0.1463
     35 H7          2.2153   -2.0666    1.9740 H         1 <0>         0.1229
     36 H8          1.9758   -0.1488    0.1908 H         1 <0>         0.4178
     37 H9         -0.8104    1.7703   -0.6771 H         1 <0>         0.4181
     38 H10        -0.8064    3.4599   -1.0586 H         1 <0>         0.0955
     39 H11        -0.7123    4.4518    0.4228 H         1 <0>         0.1147
     40 H12         1.8850    4.2353   -2.2413 H         1 <0>         0.0682
     41 H13         0.3406    4.1874   -3.1253 H         1 <0>         0.0797
     42 H14         1.9754    5.6588   -4.2702 H         1 <0>         0.0664
     43 H15         2.1266    6.6404   -2.7931 H         1 <0>         0.0697
     44 H16        -0.4413    6.2008   -4.3835 H         1 <0>         0.0626
     45 H17         0.5463    7.6815   -4.3951 H         1 <0>         0.0672
     46 H18        -1.3752    7.9048   -2.8438 H         1 <0>         0.0691
     47 H19         0.1688    7.9523   -1.9595 H         1 <0>         0.0735
     48 H20        -1.6159    5.4985   -2.2938 H         1 <0>         0.0872
     49 H21        -1.4668    6.4798   -0.8162 H         1 <0>         0.0789
     50 H22         3.3510    2.5438    1.2058 H         1 <0>         0.1399
     51 H23         5.2542    6.3660    1.3445 H         1 <0>         0.1422
     52 H24         3.3186    7.3909    0.2331 H         1 <0>         0.1448
     53 H25         5.4382    3.8333    2.9302 H         1 <0>         0.3915
@<TRIPOS>BOND
     1    1    2 1
     2    1   29 1
     3    1   30 1
     4    1   31 1
     5    2    7 ar
     6    2    3 ar
     7    3    4 ar
     8    3   32 1
     9    4    5 ar
    10    4   33 1
    11    5    6 ar
    12    5   34 1
    13    6    7 ar
    14    6    8 1
    15    7   35 1
    16    8    9 1
    17    8   36 1
    18    9   10 2
    19    9   11 1
    20   11   12 1
    21   11   37 1
    22   12   13 2
    23   13   23 1
    24   13   14 1
    25   14   15 1
    26   14   38 1
    27   14   39 1
    28   15   20 1
    29   15   16 1
    30   15   21 1
    31   16   17 1
    32   16   40 1
    33   16   41 1
    34   17   18 1
    35   17   42 1
    36   17   43 1
    37   18   19 1
    38   18   44 1
    39   18   45 1
    40   19   20 1
    41   19   46 1
    42   19   47 1
    43   20   48 1
    44   20   49 1
    45   21   22 1
    46   22   27 ar
    47   22   23 ar
    48   23   24 ar
    49   24   25 ar
    50   24   50 1
    51   25   26 ar
    52   25   28 1
    53   26   27 ar
    54   26   51 1
    55   27   52 1
    56   28   53 1
@<TRIPOS>MOLECULE
ZINC13432937
   60    61     0     0     0
SMALL
USER_CHARGES
2,4-dihydroxy-3-[(E,4R)-4-hydroxy-3-methyl-5-[(1R,2R,6R)-1,2,6-trimethyl-3-oxo-cyclohexyl]pent-2-enyl]-6-methyl-benzaldehyde
@<TRIPOS>ATOM
      1 C1          4.4443    7.7142    4.3304 C.3       1 <0>        -0.1290
      2 C2          4.8166    6.3409    3.8339 C.ar      1 <0>        -0.0050
      3 C3          5.4352    5.4580    4.6705 C.ar      1 <0>        -0.1697
      4 C4          5.7833    4.1869    4.2213 C.ar      1 <0>         0.1660
      5 C5          5.5050    3.8040    2.9167 C.ar      1 <0>        -0.1533
      6 C6          4.8837    4.6904    2.0546 C.ar      1 <0>         0.1951
      7 C7          4.5277    5.9719    2.5132 C.ar      1 <0>        -0.2328
      8 C8          3.8641    6.9179    1.6129 C.2       1 <0>         0.3753
      9 O1          3.6153    6.5952    0.4700 O.2       1 <0>        -0.4441
     10 O2          4.6142    4.3239    0.7771 O.3       1 <0>        -0.4731
     11 C9          5.8846    2.4266    2.4376 C.3       1 <0>        -0.0475
     12 C10         4.7450    1.4741    2.6928 C.2       1 <0>        -0.1356
     13 C11         4.2139    0.8069    1.6984 C.2       1 <0>        -0.1612
     14 C12         4.8178    0.8998    0.3208 C.3       1 <0>        -0.1228
     15 C13         2.9989   -0.0536    1.9320 C.3       1 <0>         0.1396
     16 H1          2.7618   -0.0662    2.9959 H         1 <0>         0.1040
     17 C14         1.8126    0.5163    1.1518 C.3       1 <0>        -0.1429
     18 C15         0.5390   -0.2798    1.4992 C.3       1 <0>        -0.0324
     19 C16        -0.5882    0.2074    0.6062 C.3       1 <0>        -0.0820
     20 H2         -0.4024   -0.2046   -0.4091 H         1 <0>         0.0719
     21 C17        -1.9657   -0.2731    1.0351 C.3       1 <0>        -0.1074
     22 C18        -2.2556    0.1282    2.4823 C.3       1 <0>        -0.1615
     23 C19        -1.1530   -0.4394    3.3464 C.2       1 <0>         0.3674
     24 O3         -1.4224   -1.1242    4.3082 O.2       1 <0>        -0.4565
     25 C20         0.2789   -0.1392    2.9919 C.3       1 <0>        -0.1173
     26 H3          0.8392   -0.7998    3.4915 H         1 <0>         0.0829
     27 C21         0.6751    1.2490    3.4964 C.3       1 <0>        -0.1544
     28 C22        -0.5697    1.7299    0.4686 C.3       1 <0>        -0.1555
     29 C23         0.8205   -1.7600    1.1839 C.3       1 <0>        -0.1529
     30 O4          3.2658   -1.3853    1.4877 O.3       1 <0>        -0.5481
     31 O5          6.3980    3.3184    5.0630 O.3       1 <0>        -0.4906
     32 H4          5.2702    8.4021    4.1497 H         1 <0>         0.0837
     33 H5          3.5577    8.0638    3.8014 H         1 <0>         0.0756
     34 H6          4.2356    7.6698    5.3994 H         1 <0>         0.0782
     35 H7          5.6559    5.7469    5.6875 H         1 <0>         0.1378
     36 H8          3.5963    7.9026    1.9665 H         1 <0>         0.1044
     37 H9          3.7472    3.9118    0.6607 H         1 <0>         0.3944
     38 H10         6.7698    2.0862    2.9749 H         1 <0>         0.0832
     39 H11         6.0983    2.4596    1.3693 H         1 <0>         0.0906
     40 H12         4.3661    1.3417    3.6954 H         1 <0>         0.1112
     41 H13         4.2009    0.3430   -0.3846 H         1 <0>         0.0583
     42 H14         4.8661    1.9449    0.0150 H         1 <0>         0.0765
     43 H15         5.8230    0.4787    0.3356 H         1 <0>         0.0686
     44 H16         2.0097    0.4381    0.0826 H         1 <0>         0.0731
     45 H17         1.6710    1.5634    1.4195 H         1 <0>         0.0830
     46 H18        -2.7252    0.1718    0.3834 H         1 <0>         0.0760
     47 H19        -2.0298   -1.3594    0.9410 H         1 <0>         0.0680
     48 H20        -3.1389   -0.2481    2.7620 H         1 <0>         0.0777
     49 H21        -2.2933    1.2094    2.5813 H         1 <0>         0.0980
     50 H22         0.0414    2.0010    3.0262 H         1 <0>         0.0669
     51 H23         0.5486    1.2922    4.5782 H         1 <0>         0.0601
     52 H24         1.7176    1.4433    3.2444 H         1 <0>         0.0762
     53 H25         0.4019    2.0488    0.0912 H         1 <0>         0.0617
     54 H26        -1.3496    2.0414   -0.2262 H         1 <0>         0.0569
     55 H27        -0.7482    2.1849    1.4429 H         1 <0>         0.0575
     56 H28         1.2158   -1.8471    0.1718 H         1 <0>         0.0555
     57 H29         1.5499   -2.1504    1.8936 H         1 <0>         0.0888
     58 H30        -0.1048   -2.3307    1.2629 H         1 <0>         0.0428
     59 H31         3.4848   -1.4499    0.5480 H         1 <0>         0.3711
     60 H32         7.3633    3.3737    5.0490 H         1 <0>         0.3977
@<TRIPOS>BOND
     1    1    2 1
     2    1   32 1
     3    1   33 1
     4    1   34 1
     5    2    7 ar
     6    2    3 ar
     7    3    4 ar
     8    3   35 1
     9    4    5 ar
    10    4   31 1
    11    5    6 ar
    12    5   11 1
    13    6    7 ar
    14    6   10 1
    15    7    8 1
    16    8    9 2
    17    8   36 1
    18   10   37 1
    19   11   12 1
    20   11   38 1
    21   11   39 1
    22   12   13 2
    23   12   40 1
    24   13   14 1
    25   13   15 1
    26   14   41 1
    27   14   42 1
    28   14   43 1
    29   15   16 1
    30   15   17 1
    31   15   30 1
    32   17   18 1
    33   17   44 1
    34   17   45 1
    35   18   25 1
    36   18   19 1
    37   18   29 1
    38   19   20 1
    39   19   21 1
    40   19   28 1
    41   21   22 1
    42   21   46 1
    43   21   47 1
    44   22   23 1
    45   22   48 1
    46   22   49 1
    47   23   24 2
    48   23   25 1
    49   25   26 1
    50   25   27 1
    51   27   50 1
    52   27   51 1
    53   27   52 1
    54   28   53 1
    55   28   54 1
    56   28   55 1
    57   29   56 1
    58   29   57 1
    59   29   58 1
    60   30   59 1
    61   31   60 1
@<TRIPOS>MOLECULE
ZINC40733056
   45    47     0     0     0
SMALL
USER_CHARGES

@<TRIPOS>ATOM
      1 C1         -1.3595    0.2197   -2.0687 C.3       1 <0>        -0.1483
      2 C2         -0.6852   -0.5531   -0.9333 C.3       1 <0>        -0.0873
      3 C3         -0.8321   -2.0560   -1.1819 C.3       1 <0>        -0.1319
      4 C4         -0.1261   -2.8262   -0.0616 C.3       1 <0>         0.1492
      5 N1         -0.6577   -2.3736    1.2312 N.pl3     1 <0>        -0.6534
      6 C5         -0.6479   -0.9361    1.5348 C.3       1 <0>         0.1482
      7 C6         -1.3481   -0.1871    0.3966 C.3       1 <0>        -0.1317
      8 C7         -1.1605   -3.2878    2.1492 C.ar      1 <0>         0.3758
      9 C8         -0.3099   -3.9212    3.0577 C.ar      1 <0>         0.0794
     10 C9         -0.8670   -4.8303    3.9584 C.ar      1 <0>         0.3633
     11 N2         -2.1782   -5.0573    3.9175 N.ar      1 <0>        -0.5326
     12 C10        -2.9456   -4.4381    3.0439 C.ar      1 <0>         0.2886
     13 N3         -2.4607   -3.5690    2.1799 N.ar      1 <0>        -0.5172
     14 N4         -0.0650   -5.4889    4.8838 N.pl3     1 <0>        -0.6549
     15 C11        -0.6137   -6.4777    5.7060 C.ar      1 <0>         0.1775
     16 C12        -1.6480   -7.2778    5.2369 C.ar      1 <0>        -0.0761
     17 C13        -2.1881   -8.2535    6.0511 C.ar      1 <0>        -0.0855
     18 C14        -1.7002   -8.4345    7.3336 C.ar      1 <0>        -0.0164
     19 C15        -0.6704   -7.6387    7.8036 C.ar      1 <0>        -0.1528
     20 C16        -0.1219   -6.6656    6.9912 C.ar      1 <0>        -0.1019
     21 C17        -0.1421   -7.8385    9.2008 C.3       1 <0>         0.5104
     22 F1          0.8879   -6.9239    9.4451 F         1 <0>        -0.1757
     23 F2         -1.1744   -7.6357   10.1230 F         1 <0>        -0.1681
     24 F3          0.3504   -9.1414    9.3313 F         1 <0>        -0.1687
     25 Cl1        -2.3819   -9.6618    8.3548 Cl        1 <0>        -0.0450
     26 N5          1.0681   -3.6513    3.0646 N.pl3     1 <0>        -0.8615
     27 H1         -1.2539    1.2901   -1.8924 H         1 <0>         0.0542
     28 H2         -0.8874   -0.0409   -3.0160 H         1 <0>         0.0540
     29 H3         -2.4175   -0.0397   -2.1065 H         1 <0>         0.0545
     30 H4          0.3727   -0.2932   -0.8954 H         1 <0>         0.0679
     31 H5         -1.8894   -2.3209   -1.1952 H         1 <0>         0.0687
     32 H6         -0.3803   -2.3122   -2.1402 H         1 <0>         0.0685
     33 H7         -0.3114   -3.8939   -0.1792 H         1 <0>         0.0664
     34 H8          0.9457   -2.6324   -0.1041 H         1 <0>         0.0551
     35 H9         -1.1775   -0.7567    2.4705 H         1 <0>         0.0668
     36 H10         0.3813   -0.5881    1.6225 H         1 <0>         0.0551
     37 H11        -1.2635    0.8870    0.5618 H         1 <0>         0.0683
     38 H12        -2.4005   -0.4695    0.3684 H         1 <0>         0.0692
     39 H13        -4.0054   -4.6460    3.0384 H         1 <0>         0.1974
     40 H14         0.8752   -5.2624    4.9589 H         1 <0>         0.4175
     41 H15        -2.0296   -7.1365    4.2365 H         1 <0>         0.1554
     42 H16        -2.9922   -8.8757    5.6870 H         1 <0>         0.1494
     43 H17         0.6853   -6.0482    7.3567 H         1 <0>         0.1474
     44 H18         1.4281   -2.9518    2.4971 H         1 <0>         0.4075
     45 H19         1.6599   -4.1642    3.6369 H         1 <0>         0.3934
@<TRIPOS>BOND
     1    1    2 1
     2    1   27 1
     3    1   28 1
     4    1   29 1
     5    2    7 1
     6    2    3 1
     7    2   30 1
     8    3    4 1
     9    3   31 1
    10    3   32 1
    11    4    5 1
    12    4   33 1
    13    4   34 1
    14    5    6 1
    15    5    8 1
    16    6    7 1
    17    6   35 1
    18    6   36 1
    19    7   37 1
    20    7   38 1
    21    8   13 ar
    22    8    9 ar
    23    9   10 ar
    24    9   26 1
    25   10   11 ar
    26   10   14 1
    27   11   12 ar
    28   12   13 ar
    29   12   39 1
    30   14   15 1
    31   14   40 1
    32   15   20 ar
    33   15   16 ar
    34   16   17 ar
    35   16   41 1
    36   17   18 ar
    37   17   42 1
    38   18   19 ar
    39   18   25 1
    40   19   20 ar
    41   19   21 1
    42   20   43 1
    43   21   22 1
    44   21   23 1
    45   21   24 1
    46   26   44 1
    47   26   45 1
@<TRIPOS>MOLECULE
ZINC57380949
   51    53     0     0     0
SMALL
USER_CHARGES

@<TRIPOS>ATOM
      1 C1         -0.0184    1.5028    0.0103 C.3       1 <0>        -0.1083
      2 C2          0.0021   -0.0041    0.0020 C.ar      1 <0>        -0.1426
      3 C3          0.0057   -0.6873   -1.2002 C.ar      1 <0>        -0.0714
      4 C4          0.0244   -2.0682   -1.2115 C.ar      1 <0>        -0.1855
      5 C5          0.0396   -2.7708   -0.0132 C.ar      1 <0>         0.2104
      6 C6          0.0359   -2.0813    1.1927 C.ar      1 <0>        -0.1958
      7 C7          0.0229   -0.7003    1.1966 C.ar      1 <0>        -0.0721
      8 N1          0.0581   -4.1674   -0.0209 N.pl3     1 <0>        -0.7387
      9 C8          0.0741   -4.9067    1.2438 C.3       1 <0>         0.1202
     10 C9          0.0923   -6.3867    0.9602 C.2       1 <0>         0.5123
     11 O1          0.0920   -6.7847   -0.1854 O.2       1 <0>        -0.5299
     12 N2          0.1090   -7.2680    1.9798 N.am      1 <0>        -0.5143
     13 N3          0.1260   -8.6439    1.7162 N.am      1 <0>        -0.5189
     14 C10         0.1426   -9.5252    2.7358 C.2       1 <0>         0.6133
     15 O2          0.1430   -9.1258    3.8854 O.2       1 <0>        -0.5233
     16 C11         0.1604  -10.9647    2.4600 C.2       1 <0>        -0.2566
     17 C12         0.1731  -12.0213    3.3440 C.2       1 <0>        -0.0465
     18 C13         0.2158  -13.3071    2.7965 C.2       1 <0>        -0.1365
     19 C14         0.2819  -13.3962    1.4546 C.2       1 <0>        -0.1540
     20 S1          0.1633  -11.8113    0.8942 S.3       1 <0>         0.1681
     21 C15         0.4990  -14.5610    0.5205 C.3       1 <0>        -0.0465
     22 C16         0.6944  -15.8786    1.2708 C.3       1 <0>        -0.1211
     23 C17        -0.6398  -16.4499    1.7218 C.3       1 <0>        -0.1223
     24 C18        -1.6123  -15.3830    2.1825 C.3       1 <0>        -0.1320
     25 C19        -1.2835  -15.0857    3.6492 C.3       1 <0>        -0.1160
     26 C20         0.1276  -14.5040    3.7321 C.3       1 <0>        -0.0701
     27 H1          1.0042    1.8801    0.0026 H         1 <0>         0.0646
     28 H2         -0.5455    1.8639   -0.8728 H         1 <0>         0.0623
     29 H3         -0.5286    1.8543    0.9071 H         1 <0>         0.0622
     30 H4         -0.0065   -0.1405   -2.1315 H         1 <0>         0.1218
     31 H5          0.0269   -2.6012   -2.1507 H         1 <0>         0.1212
     32 H6          0.0473   -2.6245    2.1261 H         1 <0>         0.1203
     33 H7          0.0244   -0.1635    2.1338 H         1 <0>         0.1212
     34 H8          0.0603   -4.6478   -0.8636 H         1 <0>         0.4119
     35 H9          0.9633   -4.6347    1.8124 H         1 <0>         0.0991
     36 H10        -0.8164   -4.6583    1.8211 H         1 <0>         0.0991
     37 H11         0.1093   -6.9496    2.8961 H         1 <0>         0.4370
     38 H12         0.1257   -8.9622    0.8000 H         1 <0>         0.4328
     39 H13         0.1513  -11.8635    4.4122 H         1 <0>         0.1488
     40 H14        -0.3661  -14.6533   -0.1361 H         1 <0>         0.0858
     41 H15         1.3825  -14.3663   -0.0874 H         1 <0>         0.0858
     42 H16         1.1871  -16.5952    0.6137 H         1 <0>         0.0732
     43 H17         1.3227  -15.7037    2.1441 H         1 <0>         0.0776
     44 H18        -1.0862  -16.9973    0.8917 H         1 <0>         0.0584
     45 H19        -0.4647  -17.1442    2.5437 H         1 <0>         0.0648
     46 H20        -1.4876  -14.4815    1.5827 H         1 <0>         0.0757
     47 H21        -2.6352  -15.7497    2.0972 H         1 <0>         0.0640
     48 H22        -1.9992  -14.3651    4.0449 H         1 <0>         0.0609
     49 H23        -1.3329  -16.0077    4.2285 H         1 <0>         0.0695
     50 H24         0.8530  -15.2592    3.4294 H         1 <0>         0.0881
     51 H25         0.3324  -14.1854    4.7542 H         1 <0>         0.0721
@<TRIPOS>BOND
     1    1    2 1
     2    1   27 1
     3    1   28 1
     4    1   29 1
     5    2    7 ar
     6    2    3 ar
     7    3    4 ar
     8    3   30 1
     9    4    5 ar
    10    4   31 1
    11    5    6 ar
    12    5    8 1
    13    6    7 ar
    14    6   32 1
    15    7   33 1
    16    8    9 1
    17    8   34 1
    18    9   10 1
    19    9   35 1
    20    9   36 1
    21   10   11 2
    22   10   12 am
    23   12   13 1
    24   12   37 1
    25   13   14 am
    26   13   38 1
    27   14   15 2
    28   14   16 1
    29   16   20 1
    30   16   17 2
    31   17   18 1
    32   17   39 1
    33   18   26 1
    34   18   19 2
    35   19   20 1
    36   19   21 1
    37   21   22 1
    38   21   40 1
    39   21   41 1
    40   22   23 1
    41   22   42 1
    42   22   43 1
    43   23   24 1
    44   23   44 1
    45   23   45 1
    46   24   25 1
    47   24   46 1
    48   24   47 1
    49   25   26 1
    50   25   48 1
    51   25   49 1
    52   26   50 1
    53   26   51 1
@<TRIPOS>MOLECULE
ZINC66775225
   57    59     0     0     0
SMALL
USER_CHARGES

@<TRIPOS>ATOM
      1 C1          0.0038    1.3842    0.0055 C.ar      1 <0>        -0.1016
      2 C2          1.1898    2.0937   -0.0072 C.ar      1 <0>        -0.1046
      3 C3          2.3983    1.4203   -0.0264 C.ar      1 <0>        -0.0376
      4 C4          2.4187    0.0369   -0.0330 C.ar      1 <0>        -0.1068
      5 C5          1.2319   -0.6715   -0.0203 C.ar      1 <0>        -0.1031
      6 C6          0.0248    0.0019   -0.0011 C.ar      1 <0>        -0.0759
      7 C7         -1.2688   -0.7711    0.0132 C.3       1 <0>        -0.0946
      8 C8         -1.7264   -1.0261   -1.4243 C.3       1 <0>         0.1561
      9 H1         -0.9290   -1.5234   -1.9766 H         1 <0>         0.0924
     10 C9         -2.9708   -1.9162   -1.4131 C.3       1 <0>        -0.0959
     11 C10        -2.6383   -3.2492   -0.7396 C.3       1 <0>        -0.1152
     12 C11        -3.8827   -4.1393   -0.7283 C.3       1 <0>        -0.1180
     13 C12        -4.3403   -4.3943   -2.1659 C.3       1 <0>        -0.1204
     14 C13        -4.6728   -3.0613   -2.8393 C.3       1 <0>        -0.1212
     15 C14        -3.4284   -2.1713   -2.8506 C.3       1 <0>        -0.1032
     16 N1         -2.0447    0.2502   -2.0692 N.am      1 <0>        -0.7225
     17 C15        -1.9788    0.3624   -3.4106 C.2       1 <0>         0.5241
     18 O1         -1.6560   -0.5933   -4.0839 O.2       1 <0>        -0.5254
     19 C16        -2.3063    1.6753   -4.0740 C.3       1 <0>        -0.1244
     20 H2         -3.3321    1.9570   -3.8366 H         1 <0>         0.1006
     21 C17        -2.1533    1.5338   -5.5901 C.3       1 <0>        -0.0988
     22 C18        -2.5173    2.8572   -6.2670 C.3       1 <0>        -0.1361
     23 C19        -1.5613    3.9527   -5.7848 C.3       1 <0>         0.1081
     24 N2         -1.5946    3.9967   -4.3166 N.am      1 <0>        -0.6270
     25 C20        -1.3484    2.7576   -3.5663 C.3       1 <0>         0.1418
     26 C21        -1.8462    5.1520   -3.6697 C.2       1 <0>         0.7109
     27 O2         -1.9654    5.1578   -2.4597 O.2       1 <0>        -0.5913
     28 N3         -1.9658    6.3009   -4.3642 N.am      1 <0>        -0.8670
     29 Cl1         3.8884    2.3108   -0.0429 Cl        1 <0>        -0.0710
     30 H3         -0.9395    1.9097    0.0251 H         1 <0>         0.1285
     31 H4          1.1733    3.1736   -0.0024 H         1 <0>         0.1333
     32 H5          3.3617   -0.4893   -0.0483 H         1 <0>         0.1327
     33 H6          1.2477   -1.7514   -0.0257 H         1 <0>         0.1312
     34 H7         -1.1171   -1.7238    0.5207 H         1 <0>         0.0963
     35 H8         -2.0300   -0.1958    0.5402 H         1 <0>         0.0820
     36 H9         -3.7681   -1.4190   -0.8607 H         1 <0>         0.0712
     37 H10        -1.8409   -3.7464   -1.2919 H         1 <0>         0.0646
     38 H11        -2.3123   -3.0675    0.2845 H         1 <0>         0.0653
     39 H12        -3.6459   -5.0889   -0.2486 H         1 <0>         0.0617
     40 H13        -4.6801   -3.6420   -0.1760 H         1 <0>         0.0605
     41 H14        -3.5430   -4.8915   -2.7182 H         1 <0>         0.0612
     42 H15        -5.2269   -5.0284   -2.1578 H         1 <0>         0.0588
     43 H16        -4.9988   -3.2430   -3.8634 H         1 <0>         0.0588
     44 H17        -5.4702   -2.5641   -2.2870 H         1 <0>         0.0568
     45 H18        -3.6652   -1.2216   -3.3304 H         1 <0>         0.0581
     46 H19        -2.6310   -2.6685   -3.4029 H         1 <0>         0.0703
     47 H20        -2.3029    1.0146   -1.5307 H         1 <0>         0.3988
     48 H21        -1.1214    1.2758   -5.8284 H         1 <0>         0.0739
     49 H22        -2.8165    0.7472   -5.9502 H         1 <0>         0.0764
     50 H23        -2.4306    2.7487   -7.3482 H         1 <0>         0.0831
     51 H24        -3.5410    3.1282   -6.0090 H         1 <0>         0.0691
     52 H25        -0.5489    3.7281   -6.1208 H         1 <0>         0.0739
     53 H26        -1.8766    4.9157   -6.1865 H         1 <0>         0.0799
     54 H27        -1.5235    2.9318   -2.5046 H         1 <0>         0.0976
     55 H28        -0.3185    2.4359   -3.7209 H         1 <0>         0.0717
     56 H29        -1.9428    6.2862   -5.3338 H         1 <0>         0.3966
     57 H30        -2.0749    7.1425   -3.8944 H         1 <0>         0.4155
@<TRIPOS>BOND
     1    1    6 ar
     2    1    2 ar
     3    1   30 1
     4    2    3 ar
     5    2   31 1
     6    3    4 ar
     7    3   29 1
     8    4    5 ar
     9    4   32 1
    10    5    6 ar
    11    5   33 1
    12    6    7 1
    13    7    8 1
    14    7   34 1
    15    7   35 1
    16    8    9 1
    17    8   10 1
    18    8   16 1
    19   10   15 1
    20   10   11 1
    21   10   36 1
    22   11   12 1
    23   11   37 1
    24   11   38 1
    25   12   13 1
    26   12   39 1
    27   12   40 1
    28   13   14 1
    29   13   41 1
    30   13   42 1
    31   14   15 1
    32   14   43 1
    33   14   44 1
    34   15   45 1
    35   15   46 1
    36   16   17 am
    37   16   47 1
    38   17   18 2
    39   17   19 1
    40   19   20 1
    41   19   25 1
    42   19   21 1
    43   21   22 1
    44   21   48 1
    45   21   49 1
    46   22   23 1
    47   22   50 1
    48   22   51 1
    49   23   24 1
    50   23   52 1
    51   23   53 1
    52   24   25 1
    53   24   26 am
    54   25   54 1
    55   25   55 1
    56   26   27 2
    57   26   28 am
    58   28   56 1
    59   28   57 1
@<TRIPOS>MOLECULE
ZINC05887422
   38    40     0     0     0
SMALL
USER_CHARGES
3-[(7-chlorobenzooxazol-2-yl)methylamino]-5-ethyl-6-methyl-1H-pyridin-2-one
@<TRIPOS>ATOM
      1 C1         -0.0127    1.0858    0.0080 C.3       1 <0>        -0.1495
      2 C2         -0.7288    1.5792    1.2668 C.3       1 <0>        -0.0702
      3 C3         -0.7493    3.0861    1.2751 C.2       1 <0>        -0.1352
      4 C4          0.3447    3.7990    1.7872 C.2       1 <0>        -0.1226
      5 C5          0.3123    5.1664    1.7826 C.2       1 <0>         0.0982
      6 C6         -0.8267    5.8269    1.2718 C.2       1 <0>         0.5148
      7 O1         -0.8739    7.0466    1.2651 O.2       1 <0>        -0.5553
      8 N1         -1.8610    5.1096    0.7927 N.am      1 <0>        -0.5935
      9 H1         -2.6651    5.5821    0.4319 H         1 <0>         0.4232
     10 C7         -1.8245    3.7499    0.7939 C.2       1 <0>         0.0979
     11 C8         -2.9969    2.9736    0.2518 C.3       1 <0>        -0.1208
     12 N2          1.3932    5.9025    2.2837 N.pl3     1 <0>        -0.7289
     13 C9          1.3466    7.3668    2.2802 C.3       1 <0>         0.2338
     14 C10         2.6229    7.9113    2.8680 C.2       1 <0>         0.2381
     15 N3          3.6935    8.1914    2.1875 N.2       1 <0>        -0.4548
     16 C11         4.6449    8.6597    3.0400 C.ar      1 <0>         0.0317
     17 C12         5.9579    9.1041    2.8728 C.ar      1 <0>        -0.0518
     18 C13         6.6807    9.5265    3.9657 C.ar      1 <0>        -0.1075
     19 C14         6.1127    9.5142    5.2312 C.ar      1 <0>        -0.0792
     20 C15         4.8158    9.0780    5.4118 C.ar      1 <0>        -0.0139
     21 C16         4.0733    8.6484    4.3209 C.ar      1 <0>         0.0172
     22 O2          2.8143    8.1819    4.1686 O.3       1 <0>        -0.1974
     23 Cl1         4.1148    9.0674    6.9999 Cl        1 <0>        -0.0479
     24 H2          0.0021   -0.0041    0.0020 H         1 <0>         0.0583
     25 H3          1.0099    1.4631    0.0003 H         1 <0>         0.0562
     26 H4         -0.5399    1.4469   -0.8751 H         1 <0>         0.0549
     27 H5         -1.7514    1.2020    1.2746 H         1 <0>         0.0749
     28 H6         -0.2017    1.2182    2.1499 H         1 <0>         0.0738
     29 H7          1.2043    3.2743    2.1773 H         1 <0>         0.1314
     30 H8         -3.7049    2.7755    1.0565 H         1 <0>         0.0834
     31 H9         -3.4876    3.5546   -0.5291 H         1 <0>         0.0728
     32 H10        -2.6462    2.0291   -0.1643 H         1 <0>         0.0915
     33 H11         2.1726    5.4429    2.6331 H         1 <0>         0.4076
     34 H12         1.2365    7.7243    1.2564 H         1 <0>         0.1166
     35 H13         0.4989    7.7048    2.8762 H         1 <0>         0.1022
     36 H14         6.4051    9.1156    1.8898 H         1 <0>         0.1458
     37 H15         7.6965    9.8700    3.8369 H         1 <0>         0.1509
     38 H16         6.6892    9.8485    6.0810 H         1 <0>         0.1535
@<TRIPOS>BOND
     1    1    2 1
     2    1   24 1
     3    1   25 1
     4    1   26 1
     5    2    3 1
     6    2   27 1
     7    2   28 1
     8    3   10 2
     9    3    4 1
    10    4    5 2
    11    4   29 1
    12    5    6 1
    13    5   12 1
    14    6    7 2
    15    6    8 am
    16    8    9 1
    17    8   10 1
    18   10   11 1
    19   11   30 1
    20   11   31 1
    21   11   32 1
    22   12   13 1
    23   12   33 1
    24   13   14 1
    25   13   34 1
    26   13   35 1
    27   14   22 1
    28   14   15 2
    29   15   16 1
    30   16   21 ar
    31   16   17 ar
    32   17   18 ar
    33   17   36 1
    34   18   19 ar
    35   18   37 1
    36   19   20 ar
    37   19   38 1
    38   20   21 ar
    39   20   23 1
    40   21   22 1
@<TRIPOS>MOLECULE
ZINC28579288
   42    44     0     0     0
SMALL
USER_CHARGES
3-[(3aR,7aS)-3-cyano-3a,4,5,6,7,7a-hexahydrobenzothiophen-2-yl]-1-(4-methoxyphenyl)urea
@<TRIPOS>ATOM
      1 C1         -5.9092   13.5670    3.1664 C.3       1 <0>         0.0229
      2 O1         -6.0920   12.4364    2.3117 O.3       1 <0>        -0.3164
      3 C2         -5.4733   11.2814    2.6752 C.ar      1 <0>         0.1167
      4 C3         -5.6089   10.1456    1.8903 C.ar      1 <0>        -0.1320
      5 C4         -4.9817    8.9720    2.2594 C.ar      1 <0>        -0.0780
      6 C5         -4.2148    8.9291    3.4160 C.ar      1 <0>         0.1218
      7 C6         -4.0838   10.0648    4.2038 C.ar      1 <0>        -0.1010
      8 C7         -4.7073   11.2392    3.8309 C.ar      1 <0>        -0.1902
      9 N1         -3.5780    7.7385    3.7910 N.am      1 <0>        -0.6845
     10 C8         -3.0882    6.9101    2.8474 C.2       1 <0>         0.7027
     11 O2         -3.2721    7.1529    1.6705 O.2       1 <0>        -0.5285
     12 N2         -2.3944    5.8125    3.2086 N.am      1 <0>        -0.6516
     13 C9         -1.8928    4.9641    2.2422 C.2       1 <0>         0.2193
     14 C10        -1.1698    3.8122    2.4388 C.2       1 <0>        -0.1893
     15 C11        -0.6780    3.0953    1.2274 C.3       1 <0>        -0.0208
     16 H1          0.3654    3.4380    1.1656 H         1 <0>         0.1083
     17 C12        -0.7142    1.5623    1.2957 C.3       1 <0>        -0.1073
     18 C13        -0.0203    1.0826    0.0065 C.3       1 <0>        -0.1189
     19 C14        -0.7170    1.5787   -1.2547 C.3       1 <0>        -0.1193
     20 C15        -0.9226    3.1089   -1.2393 C.3       1 <0>        -0.1059
     21 C16        -1.6256    3.4268    0.0351 C.3       1 <0>        -0.1172
     22 H2         -2.4518    2.7364   -0.1902 H         1 <0>         0.1205
     23 S1         -2.0031    5.1401    0.4643 S.3       1 <0>         0.0188
     24 C17        -0.8996    3.3191    3.7558 C.1       1 <0>         0.2660
     25 N3         -0.6853    2.9280    4.8006 N.1       1 <0>        -0.4351
     26 H3         -6.4595   14.4277    2.7585 H         1 <0>         0.1027
     27 H4         -4.8384   13.8116    3.2269 H         1 <0>         0.0567
     28 H5         -6.2890   13.3319    4.1716 H         1 <0>         0.0567
     29 H6         -6.2055   10.1792    0.9907 H         1 <0>         0.1360
     30 H7         -5.0879    8.0877    1.6486 H         1 <0>         0.1485
     31 H8         -3.4911   10.0308    5.1060 H         1 <0>         0.1289
     32 H9         -4.6019   12.1238    4.4413 H         1 <0>         0.1330
     33 H10        -3.4779    7.4800    4.8555 H         1 <0>         0.4331
     34 H11        -2.2279    5.5928    4.2735 H         1 <0>         0.4417
     35 H12        -0.1773    1.2225    2.1937 H         1 <0>         0.0675
     36 H13        -1.7592    1.2219    1.3425 H         1 <0>         0.0735
     37 H14         1.0152    1.4533   -0.0122 H         1 <0>         0.0665
     38 H15        -0.0167   -0.0171   -0.0206 H         1 <0>         0.0676
     39 H16        -0.1082    1.3232   -2.1345 H         1 <0>         0.0727
     40 H17        -1.7040    1.1008   -1.3405 H         1 <0>         0.0645
     41 H18         0.0552    3.6107   -1.2853 H         1 <0>         0.0715
     42 H19        -1.5285    3.4062   -2.1079 H         1 <0>         0.0778
@<TRIPOS>BOND
     1    1    2 1
     2    1   26 1
     3    1   27 1
     4    1   28 1
     5    2    3 1
     6    3    8 ar
     7    3    4 ar
     8    4    5 ar
     9    4   29 1
    10    5    6 ar
    11    5   30 1
    12    6    7 ar
    13    6    9 1
    14    7    8 ar
    15    7   31 1
    16    8   32 1
    17    9   10 am
    18    9   33 1
    19   10   11 2
    20   10   12 am
    21   12   13 1
    22   12   34 1
    23   13   23 1
    24   13   14 2
    25   14   15 1
    26   14   24 1
    27   15   16 1
    28   15   21 1
    29   15   17 1
    30   17   18 1
    31   17   35 1
    32   17   36 1
    33   18   19 1
    34   18   37 1
    35   18   38 1
    36   19   20 1
    37   19   39 1
    38   19   40 1
    39   20   21 1
    40   20   41 1
    41   20   42 1
    42   21   22 1
    43   21   23 1
    44   24   25 3
@<TRIPOS>MOLECULE
ZINC39932527
   37    39     0     0     0
SMALL
USER_CHARGES

@<TRIPOS>ATOM
      1 C1         -0.0187    1.5258    0.0104 C.3       1 <0>        -0.1531
      2 C2          0.0021   -0.0041    0.0020 C.3       1 <0>        -0.1177
      3 C3          0.7421   -0.5109    1.2415 C.3       1 <0>        -0.0585
      4 C4          0.7625   -2.0177    1.2333 C.2       1 <0>         0.0076
      5 C5          1.7455   -2.7512    0.7699 C.2       1 <0>        -0.1614
      6 C6          3.1269   -2.4342    0.2656 C.3       1 <0>         0.1086
      7 H1          3.4339   -1.4448    0.6044 H         1 <0>         0.1179
      8 C7          4.0316   -3.4969    0.8616 C.2       1 <0>        -0.2887
      9 C8          3.5335   -4.5663    1.5166 C.2       1 <0>         0.4560
     10 O1          2.2362   -4.8301    1.7550 O.3       1 <0>        -0.2764
     11 C9          1.2677   -4.1964    0.9153 C.3       1 <0>         0.1634
     12 H2          1.1719   -4.6988   -0.0472 H         1 <0>         0.1651
     13 N1         -0.0231   -4.0238    1.5897 N.2       1 <0>        -0.1296
     14 N2         -0.2319   -2.8098    1.7098 N.2       1 <0>        -0.1079
     15 N3          4.4438   -5.4787    1.9874 N.pl3     1 <0>        -0.8308
     16 C10         5.4506   -3.3615    0.7249 C.1       1 <0>         0.2700
     17 N4          6.5763   -3.2540    0.6165 N.1       1 <0>        -0.4341
     18 C11         3.1602   -2.5021   -1.2396 C.ar      1 <0>        -0.0847
     19 C12         2.8381   -3.6812   -1.8857 C.ar      1 <0>        -0.0944
     20 C13         2.8677   -3.7449   -3.2660 C.ar      1 <0>        -0.0926
     21 C14         3.2199   -2.6298   -4.0036 C.ar      1 <0>        -0.1219
     22 C15         3.5427   -1.4483   -3.3600 C.ar      1 <0>         0.0750
     23 C16         3.5075   -1.3827   -1.9750 C.ar      1 <0>         0.0800
     24 F1          3.8169   -0.2286   -1.3446 F         1 <0>        -0.1213
     25 F2          3.8874   -0.3583   -4.0800 F         1 <0>        -0.1237
     26 H3          1.0039    1.9031    0.0027 H         1 <0>         0.0573
     27 H4         -0.5459    1.8868   -0.8726 H         1 <0>         0.0590
     28 H5         -0.5289    1.8773    0.9072 H         1 <0>         0.0591
     29 H6         -1.0205   -0.3814    0.0098 H         1 <0>         0.0702
     30 H7          0.5123   -0.3556   -0.8948 H         1 <0>         0.0613
     31 H8          1.7647   -0.1336    1.2338 H         1 <0>         0.0885
     32 H9          0.2319   -0.1594    2.1383 H         1 <0>         0.0934
     33 H10         5.3923   -5.3366    1.8422 H         1 <0>         0.4251
     34 H11         4.1389   -6.2657    2.4654 H         1 <0>         0.4128
     35 H12         2.5635   -4.5535   -1.3112 H         1 <0>         0.1308
     36 H13         2.6159   -4.6669   -3.7690 H         1 <0>         0.1454
     37 H14         3.2433   -2.6811   -5.0821 H         1 <0>         0.1502
@<TRIPOS>BOND
     1    1    2 1
     2    1   26 1
     3    1   27 1
     4    1   28 1
     5    2    3 1
     6    2   29 1
     7    2   30 1
     8    3    4 1
     9    3   31 1
    10    3   32 1
    11    4   14 1
    12    4    5 2
    13    5   11 1
    14    5    6 1
    15    6    7 1
    16    6    8 1
    17    6   18 1
    18    8    9 2
    19    8   16 1
    20    9   10 1
    21    9   15 1
    22   10   11 1
    23   11   12 1
    24   11   13 1
    25   13   14 2
    26   15   33 1
    27   15   34 1
    28   16   17 3
    29   18   23 ar
    30   18   19 ar
    31   19   20 ar
    32   19   35 1
    33   20   21 ar
    34   20   36 1
    35   21   22 ar
    36   21   37 1
    37   22   23 ar
    38   22   25 1
    39   23   24 1
@<TRIPOS>MOLECULE
ZINC55189485
   28    30     0     0     0
SMALL
USER_CHARGES

@<TRIPOS>ATOM
      1 C1         -0.0167    1.3778    0.0096 C.ar      1 <0>        -0.1135
      2 C2          1.1711    2.0855    0.0021 C.ar      1 <0>        -0.0822
      3 C3          2.3776    1.4114   -0.0135 C.ar      1 <0>        -0.0875
      4 C4          2.3973    0.0292   -0.0216 C.ar      1 <0>        -0.0762
      5 C5          1.2095   -0.6792   -0.0136 C.ar      1 <0>        -0.0918
      6 C6          0.0021   -0.0041    0.0020 C.ar      1 <0>        -0.0850
      7 Br1         1.2358   -2.5700   -0.0253 Br        1 <0>        -0.0458
      8 C7          3.6719    2.1834   -0.0223 C.3       1 <0>         0.0054
      9 C8          4.1174    2.4331    1.3956 C.2       1 <0>         0.2566
     10 N1          3.7848    3.4924    2.1356 N.2       1 <0>        -0.5044
     11 C9          4.3412    3.4020    3.3253 C.2       1 <0>         0.3606
     12 O1          5.0522    2.2605    3.3648 O.3       1 <0>        -0.0967
     13 N2          4.8842    1.6460    2.0960 N.2       1 <0>        -0.3300
     14 C10         4.2086    4.3788    4.4207 C.2       1 <0>         0.1460
     15 C11         4.8451    4.1719    5.6172 C.2       1 <0>        -0.1767
     16 S1          4.3377    5.6284    6.5213 S.3       1 <0>         0.0354
     17 C12         3.3399    6.3603    5.2321 C.2       1 <0>         0.3918
     18 N3          3.4719    5.4794    4.2599 N.2       1 <0>        -0.5429
     19 N4          2.6213    7.5439    5.2481 N.pl3     1 <0>        -0.7896
     20 H1         -0.9592    1.9049    0.0260 H         1 <0>         0.1359
     21 H2          1.1560    3.1654    0.0080 H         1 <0>         0.1359
     22 H3          3.3402   -0.4974   -0.0346 H         1 <0>         0.1353
     23 H4         -0.9257   -0.5568    0.0083 H         1 <0>         0.1349
     24 H5          4.4346    1.6080   -0.5468 H         1 <0>         0.1094
     25 H6          3.5229    3.1366   -0.5295 H         1 <0>         0.1168
     26 H7          5.4781    3.3541    5.9282 H         1 <0>         0.2114
     27 H8          2.6198    8.0997    6.0431 H         1 <0>         0.4249
     28 H9          2.1194    7.8173    4.4643 H         1 <0>         0.4218
@<TRIPOS>BOND
     1    1    6 ar
     2    1    2 ar
     3    1   20 1
     4    2    3 ar
     5    2   21 1
     6    3    4 ar
     7    3    8 1
     8    4    5 ar
     9    4   22 1
    10    5    6 ar
    11    5    7 1
    12    6   23 1
    13    8    9 1
    14    8   24 1
    15    8   25 1
    16    9   13 2
    17    9   10 1
    18   10   11 2
    19   11   12 1
    20   11   14 1
    21   12   13 1
    22   14   18 1
    23   14   15 2
    24   15   16 1
    25   15   26 1
    26   16   17 1
    27   17   18 2
    28   17   19 1
    29   19   27 1
    30   19   28 1
@<TRIPOS>MOLECULE
ZINC65470721
   43    47     0     0     0
SMALL
USER_CHARGES

@<TRIPOS>ATOM
      1 C1         -0.0167    1.3790    0.0096 C.ar      1 <0>        -0.1034
      2 C2          1.1687    2.0918    0.0021 C.ar      1 <0>        -0.1240
      3 C3          2.3774    1.4257   -0.0134 C.ar      1 <0>        -0.0845
      4 C4          2.4021    0.0327   -0.0211 C.ar      1 <0>        -0.0184
      5 C5          1.2051   -0.6804   -0.0130 C.ar      1 <0>        -0.0756
      6 C6          0.0021   -0.0041    0.0020 C.ar      1 <0>        -0.1250
      7 C7          3.6988   -0.6890   -0.0383 C.2       1 <0>         0.2689
      8 N1          3.8516   -2.0201   -0.0469 N.2       1 <0>        -0.5174
      9 C8          5.1236   -2.3191   -0.0624 C.2       1 <0>         0.2644
     10 H1          6.7929   -1.0841   -0.0741 H         1 <0>         0.4414
     11 N2          5.8269   -1.1724   -0.0640 N.pl3     1 <0>        -0.4695
     12 N3          4.8880   -0.1281   -0.0533 N.2       1 <0>        -0.2982
     13 C9          5.7032   -3.7101   -0.0756 C.3       1 <0>         0.2357
     14 N4          5.7946   -4.2141    1.2970 N.pl3     1 <0>        -0.6274
     15 C10         6.8833   -4.0623    2.1668 C.ar      1 <0>         0.1151
     16 C11         8.1065   -3.4294    1.9798 C.ar      1 <0>        -0.1365
     17 C12         9.0399   -3.4088    2.9982 C.ar      1 <0>        -0.1261
     18 C13         8.7611   -4.0177    4.2077 C.ar      1 <0>        -0.1171
     19 C14         7.5479   -4.6493    4.4029 C.ar      1 <0>        -0.1399
     20 C15         6.6025   -4.6749    3.3845 C.ar      1 <0>         0.1359
     21 N5          5.3222   -5.2444    3.3451 N.pl3     1 <0>        -0.7474
     22 C16         4.7605   -4.9659    2.0180 C.3       1 <0>         0.4299
     23 H2          3.8543   -4.3670    2.1087 H         1 <0>         0.0730
     24 C17         4.4572   -6.2773    1.2905 C.3       1 <0>        -0.1889
     25 C18         3.0870   -6.4147    0.6237 C.3       1 <0>        -0.1676
     26 C19         3.3974   -7.1957    1.9023 C.3       1 <0>        -0.1680
     27 H3         -0.9602    1.9042    0.0260 H         1 <0>         0.1263
     28 H4          1.1483    3.1716    0.0081 H         1 <0>         0.1286
     29 H5          3.3023    1.9833   -0.0199 H         1 <0>         0.1300
     30 H6          1.2187   -1.7603   -0.0193 H         1 <0>         0.1342
     31 H7         -0.9264   -0.5558    0.0079 H         1 <0>         0.1288
     32 H8          5.0597   -4.3663   -0.6615 H         1 <0>         0.1202
     33 H9          6.6981   -3.6849   -0.5203 H         1 <0>         0.1030
     34 H10         8.3279   -2.9530    1.0362 H         1 <0>         0.1120
     35 H11         9.9894   -2.9163    2.8490 H         1 <0>         0.1227
     36 H12         9.4932   -3.9999    5.0014 H         1 <0>         0.1232
     37 H13         7.3338   -5.1242    5.3489 H         1 <0>         0.1196
     38 H14         4.8867   -5.7296    4.0633 H         1 <0>         0.4243
     39 H15         5.3071   -6.7485    0.7968 H         1 <0>         0.1093
     40 H16         2.4017   -5.5709    0.7032 H         1 <0>         0.1002
     41 H17         3.0353   -6.9763   -0.3091 H         1 <0>         0.0979
     42 H18         3.5498   -8.2711    1.8106 H         1 <0>         0.0972
     43 H19         2.9162   -6.8657    2.8229 H         1 <0>         0.0934
@<TRIPOS>BOND
     1    1    6 ar
     2    1    2 ar
     3    1   27 1
     4    2    3 ar
     5    2   28 1
     6    3    4 ar
     7    3   29 1
     8    4    5 ar
     9    4    7 1
    10    5    6 ar
    11    5   30 1
    12    6   31 1
    13    7    8 1
    14    7   12 2
    15    8    9 2
    16    9   13 1
    17    9   11 1
    18   10   11 1
    19   11   12 1
    20   13   14 1
    21   13   32 1
    22   13   33 1
    23   14   22 1
    24   14   15 1
    25   15   20 ar
    26   15   16 ar
    27   16   17 ar
    28   16   34 1
    29   17   18 ar
    30   17   35 1
    31   18   19 ar
    32   18   36 1
    33   19   20 ar
    34   19   37 1
    35   20   21 1
    36   21   22 1
    37   21   38 1
    38   22   23 1
    39   22   24 1
    40   24   26 1
    41   24   25 1
    42   24   39 1
    43   25   26 1
    44   25   40 1
    45   25   41 1
    46   26   42 1
    47   26   43 1
@<TRIPOS>MOLECULE
ZINC06135285
   76    80     0     0     0
SMALL
USER_CHARGES
3-[[1-(1,1-dimethylpropyl)tetrazol-5-yl]-[4-(4-methoxyphenyl)piperazin-1-yl]-methyl]-6-ethyl-1H-quinolin-2-one
@<TRIPOS>ATOM
      1 C1         -2.0551    0.1321    0.4470 C.3       1 <0>        -0.1506
      2 C2         -1.2633    0.3376    1.7399 C.3       1 <0>        -0.0899
      3 C3          0.1048    0.8771    1.4107 C.ar      1 <0>        -0.1006
      4 C4          0.3049    2.2492    1.3414 C.ar      1 <0>        -0.0322
      5 C5          1.5476    2.7646    1.0425 C.ar      1 <0>        -0.1605
      6 C6          2.6139    1.9026    0.8074 C.ar      1 <0>         0.1990
      7 C7          2.4072    0.5122    0.8785 C.ar      1 <0>        -0.1521
      8 C8          1.1370    0.0117    1.1837 C.ar      1 <0>        -0.0422
      9 C9          3.5358   -0.3867    0.6300 C.2       1 <0>         0.0705
     10 C10         4.7440    0.1558    0.3391 C.2       1 <0>        -0.2811
     11 C11         4.8983    1.5575    0.2805 C.2       1 <0>         0.5436
     12 O1          5.9930    2.0242    0.0173 O.2       1 <0>        -0.5210
     13 N1          3.8678    2.3908    0.5072 N.am      1 <0>        -0.6187
     14 H1          4.0129    3.3790    0.4573 H         1 <0>         0.4348
     15 C12         5.9264   -0.7412    0.0779 C.3       1 <0>         0.2083
     16 H2          5.6006   -1.7814    0.0788 H         1 <0>         0.1637
     17 C13         6.9594   -0.5374    1.1562 C.2       1 <0>         0.1123
     18 N2          7.7003    0.5282    1.3388 N.2       1 <0>        -0.2430
     19 N3          8.4551    0.3177    2.3614 N.2       1 <0>        -0.0595
     20 N4          8.2206   -0.8578    2.8311 N.2       1 <0>        -0.0532
     21 N5          7.3044   -1.4167    2.1151 N.pl3     1 <0>        -0.2714
     22 C14         6.7450   -2.7568    2.3090 C.3       1 <0>         0.1538
     23 C15         5.2293   -2.6552    2.4912 C.3       1 <0>        -0.1755
     24 C16         7.0547   -3.6207    1.0848 C.3       1 <0>        -0.1713
     25 C17         7.3667   -3.3938    3.5533 C.3       1 <0>        -0.1217
     26 C18         6.7825   -4.7933    3.7558 C.3       1 <0>        -0.1574
     27 C19         5.5307   -0.6006   -2.3071 C.3       1 <0>         0.0016
     28 C20         6.1522   -0.1729   -3.6387 C.3       1 <0>         0.0270
     29 N6          7.3637   -0.9665   -3.8882 N.pl3     1 <0>        -0.4793
     30 C21         8.3443   -0.7783   -2.8100 C.3       1 <0>         0.0252
     31 C22         7.7228   -1.2060   -1.4784 C.3       1 <0>        -0.0017
     32 C23         7.9208   -0.6533   -5.1331 C.ar      1 <0>         0.0457
     33 C24         9.2389   -0.2242   -5.2161 C.ar      1 <0>        -0.1181
     34 C25         9.7897    0.0792   -6.4458 C.ar      1 <0>        -0.1831
     35 C26         9.0231   -0.0332   -7.5963 C.ar      1 <0>         0.1263
     36 C27         7.7049   -0.4567   -7.5136 C.ar      1 <0>        -0.1270
     37 C28         7.1543   -0.7660   -6.2854 C.ar      1 <0>        -0.0848
     38 O2          9.5645    0.2716   -8.8061 O.3       1 <0>        -0.3134
     39 C29        10.9273    0.7012   -8.8173 C.3       1 <0>         0.0244
     40 H3         -3.0446   -0.2581    0.6851 H         1 <0>         0.0656
     41 H4         -2.1557    1.0848   -0.0729 H         1 <0>         0.0580
     42 H5         -1.5292   -0.5769   -0.1924 H         1 <0>         0.0560
     43 H6         -1.1627   -0.6151    2.2598 H         1 <0>         0.0784
     44 H7         -1.7892    1.0466    2.3793 H         1 <0>         0.0803
     45 H8         -0.5229    2.9197    1.5192 H         1 <0>         0.1433
     46 H9          1.6930    3.8335    0.9910 H         1 <0>         0.1447
     47 H10         0.9731   -1.0543    1.2391 H         1 <0>         0.1426
     48 H11         3.4087   -1.4582    0.6769 H         1 <0>         0.1582
     49 H12         4.7863   -2.2013    1.6047 H         1 <0>         0.0564
     50 H13         4.8131   -3.6522    2.6355 H         1 <0>         0.1110
     51 H14         5.0086   -2.0397    3.3634 H         1 <0>         0.0822
     52 H15         8.1307   -3.7803    1.0156 H         1 <0>         0.0853
     53 H16         6.5503   -4.5821    1.1816 H         1 <0>         0.1107
     54 H17         6.7037   -3.1152    0.1851 H         1 <0>         0.0525
     55 H18         8.4466   -3.4662    3.4235 H         1 <0>         0.0873
     56 H19         7.1461   -2.7783    4.4254 H         1 <0>         0.0851
     57 H20         7.0032   -5.4088    2.8837 H         1 <0>         0.0652
     58 H21         7.2255   -5.2472    4.6423 H         1 <0>         0.0752
     59 H22         5.7027   -4.7210    3.8857 H         1 <0>         0.0648
     60 H23         5.2453   -1.6512   -2.3598 H         1 <0>         0.1437
     61 H24         4.6481    0.0067   -2.1060 H         1 <0>         0.1339
     62 H25         6.4127    0.8846   -3.5954 H         1 <0>         0.0714
     63 H26         5.4366   -0.3388   -4.4440 H         1 <0>         0.1322
     64 H27         8.6297    0.2723   -2.7573 H         1 <0>         0.0750
     65 H28         9.2269   -1.3856   -3.0110 H         1 <0>         0.1321
     66 H29         8.4384   -1.0401   -0.6731 H         1 <0>         0.1262
     67 H30         7.4623   -2.2635   -1.5216 H         1 <0>         0.1413
     68 H31         9.8343   -0.1316   -4.3199 H         1 <0>         0.1295
     69 H32        10.8161    0.4087   -6.5111 H         1 <0>         0.1350
     70 H33         7.1089   -0.5443   -8.4100 H         1 <0>         0.1401
     71 H34         6.1278   -1.0957   -6.2213 H         1 <0>         0.1353
     72 H35        11.2336    0.9115   -9.8421 H         1 <0>         0.1065
     73 H36        11.0286    1.6042   -8.2153 H         1 <0>         0.0577
     74 H37        11.5593   -0.0844   -8.4032 H         1 <0>         0.0584
     75 N7          6.5187   -0.3855   -1.2292 N.4       1 <0>        -0.3930
     76 H38         6.7870    0.6055   -1.2153 H         1 <0>         0.4450
@<TRIPOS>BOND
     1    1    2 1
     2    1   40 1
     3    1   41 1
     4    1   42 1
     5    2    3 1
     6    2   43 1
     7    2   44 1
     8    3    8 ar
     9    3    4 ar
    10    4    5 ar
    11    4   45 1
    12    5    6 ar
    13    5   46 1
    14    6   13 1
    15    6    7 ar
    16    7    8 ar
    17    7    9 1
    18    8   47 1
    19    9   10 2
    20    9   48 1
    21   10   11 1
    22   10   15 1
    23   11   12 2
    24   11   13 am
    25   13   14 1
    26   15   16 1
    27   15   17 1
    28   15   75 1
    29   17   21 1
    30   17   18 2
    31   18   19 1
    32   19   20 2
    33   20   21 1
    34   21   22 1
    35   22   23 1
    36   22   24 1
    37   22   25 1
    38   23   49 1
    39   23   50 1
    40   23   51 1
    41   24   52 1
    42   24   53 1
    43   24   54 1
    44   25   26 1
    45   25   55 1
    46   25   56 1
    47   26   57 1
    48   26   58 1
    49   26   59 1
    50   27   28 1
    51   27   60 1
    52   27   61 1
    53   27   75 1
    54   28   29 1
    55   28   62 1
    56   28   63 1
    57   29   30 1
    58   29   32 1
    59   30   31 1
    60   30   64 1
    61   30   65 1
    62   31   66 1
    63   31   67 1
    64   31   75 1
    65   32   37 ar
    66   32   33 ar
    67   33   34 ar
    68   33   68 1
    69   34   35 ar
    70   34   69 1
    71   35   36 ar
    72   35   38 1
    73   36   37 ar
    74   36   70 1
    75   37   71 1
    76   38   39 1
    77   39   72 1
    78   39   73 1
    79   39   74 1
    80   75   76 1
@<TRIPOS>MOLECULE
ZINC15276447
   67    71     0     0     0
SMALL
USER_CHARGES
[(1S,9aS)-2,3,4,6,7,8,9,9a-octahydro-1H-quinolizin-1-yl]methyl 5-(3,4-dimethoxyphenyl)-7-(trifluoromethyl)pyrazolo[1,5-a]pyrimidine-2-carboxylate
@<TRIPOS>ATOM
      1 C1          6.0544   -2.3453   -0.0711 C.3       1 <0>         0.0209
      2 O1          6.1063   -0.9172   -0.0634 O.3       1 <0>        -0.2980
      3 C2          4.9186   -0.2567   -0.0479 C.ar      1 <0>         0.1398
      4 C3          3.7292   -0.9709   -0.0400 C.ar      1 <0>        -0.1798
      5 C4          2.5218   -0.3047   -0.0189 C.ar      1 <0>        -0.0715
      6 C5          2.4943    1.0902   -0.0164 C.ar      1 <0>        -0.0813
      7 C6          3.6901    1.8091   -0.0240 C.ar      1 <0>        -0.1167
      8 C7          4.8978    1.1363   -0.0397 C.ar      1 <0>         0.0947
      9 O2          6.0651    1.8340   -0.0476 O.3       1 <0>        -0.3010
     10 C8          5.9687    3.2598   -0.0388 C.3       1 <0>         0.0231
     11 C9          1.1986    1.8064    0.0003 C.2       1 <0>         0.2711
     12 C10        -0.0126    1.0758    0.0080 C.2       1 <0>        -0.1262
     13 C11        -1.1880    1.7419    0.0171 C.2       1 <0>         0.0892
     14 N1         -1.1817    3.1107    0.0301 N.pl3     1 <0>        -0.2928
     15 C12         0.0111    3.7903    0.0224 C.2       1 <0>         0.2746
     16 N2          1.1746    3.1266    0.0077 N.2       1 <0>        -0.4341
     17 C13        -0.2892    5.1442    0.0326 C.2       1 <0>        -0.1826
     18 C14        -1.6832    5.2677    0.0466 C.2       1 <0>         0.0778
     19 N3         -2.2149    4.0552    0.0451 N.2       1 <0>        -0.2385
     20 C15        -2.4360    6.5391    0.0602 C.2       1 <0>         0.5639
     21 O3         -1.8402    7.5976    0.0598 O.2       1 <0>        -0.4734
     22 O4         -3.7829    6.5242    0.0731 O.3       1 <0>        -0.3267
     23 C16        -4.4562    7.8106    0.0860 C.3       1 <0>         0.0504
     24 C17        -5.9707    7.5934    0.0995 C.3       1 <0>        -0.1074
     25 H1         -6.2540    6.9648   -0.7447 H         1 <0>         0.1328
     26 C18        -6.3735    6.9026    1.4032 C.3       1 <0>        -0.1321
     27 C19        -6.0108    7.8186    2.5767 C.3       1 <0>        -0.1512
     28 C20        -6.7416    9.1502    2.4072 C.3       1 <0>        -0.0045
     29 C21        -6.6802    8.9469   -0.0129 C.3       1 <0>         0.0471
     30 H2         -7.7583    8.7908   -0.0512 H         1 <0>         0.1487
     31 C22        -6.2146    9.6220   -1.3072 C.3       1 <0>        -0.1516
     32 C23        -6.8657   10.9997   -1.4376 C.3       1 <0>        -0.1360
     33 C24        -6.4930   11.8371   -0.2098 C.3       1 <0>        -0.1481
     34 C25        -6.9769   11.1131    1.0463 C.3       1 <0>        -0.0037
     35 C26        -2.4918    0.9862    0.0185 C.3       1 <0>         0.5252
     36 F1         -2.2358   -0.3851    0.1244 F         1 <0>        -0.1534
     37 F2         -3.2698    1.4005    1.1049 F         1 <0>        -0.1551
     38 F3         -3.1801    1.2415   -1.1723 F         1 <0>        -0.1551
     39 H3          7.0681   -2.7456   -0.0833 H         1 <0>         0.1071
     40 H4          5.5364   -2.6948    0.8220 H         1 <0>         0.0605
     41 H5          5.5190   -2.6846   -0.9578 H         1 <0>         0.0606
     42 H6          3.7489   -2.0507   -0.0460 H         1 <0>         0.1489
     43 H7          1.5973   -0.8630   -0.0086 H         1 <0>         0.1376
     44 H8          3.6724    2.8889   -0.0180 H         1 <0>         0.1529
     45 H9          5.4405    3.5827    0.8582 H         1 <0>         0.0577
     46 H10         6.9695    3.6916   -0.0465 H         1 <0>         0.1056
     47 H11         5.4227    3.5924   -0.9216 H         1 <0>         0.0579
     48 H12         0.0021   -0.0041    0.0020 H         1 <0>         0.1916
     49 H13         0.4233    5.9559    0.0302 H         1 <0>         0.1852
     50 H14        -4.1610    8.3663    0.9760 H         1 <0>         0.0700
     51 H15        -4.1780    8.3753   -0.8038 H         1 <0>         0.0920
     52 H16        -7.4477    6.7176    1.4022 H         1 <0>         0.0895
     53 H17        -5.8375    5.9582    1.4973 H         1 <0>         0.1044
     54 H18        -4.9346    7.9912    2.5862 H         1 <0>         0.0856
     55 H19        -6.3160    7.3511    3.5128 H         1 <0>         0.1172
     56 H20        -6.4897    9.8090    3.2382 H         1 <0>         0.1294
     57 H21        -7.8172    8.9740    2.4014 H         1 <0>         0.1325
     58 H22        -5.1305    9.7341   -1.2875 H         1 <0>         0.0897
     59 H23        -6.4983    9.0051   -2.1598 H         1 <0>         0.1155
     60 H24        -6.5024   11.4919   -2.3398 H         1 <0>         0.0966
     61 H25        -7.9488   10.8889   -1.4896 H         1 <0>         0.0836
     62 H26        -5.4109   11.9602   -0.1663 H         1 <0>         0.0876
     63 H27        -6.9695   12.8152   -0.2764 H         1 <0>         0.1142
     64 H28        -6.7164   11.7019    1.9258 H         1 <0>         0.1290
     65 H29        -8.0592   10.9926    0.9996 H         1 <0>         0.1308
     66 N4         -6.3216    9.7977    1.1502 N.4       1 <0>        -0.3935
     67 H30        -5.3034    9.9295    1.1635 H         1 <0>         0.4214
@<TRIPOS>BOND
     1    1    2 1
     2    1   39 1
     3    1   40 1
     4    1   41 1
     5    2    3 1
     6    3    8 ar
     7    3    4 ar
     8    4    5 ar
     9    4   42 1
    10    5    6 ar
    11    5   43 1
    12    6    7 ar
    13    6   11 1
    14    7    8 ar
    15    7   44 1
    16    8    9 1
    17    9   10 1
    18   10   45 1
    19   10   46 1
    20   10   47 1
    21   11   16 2
    22   11   12 1
    23   12   13 2
    24   12   48 1
    25   13   14 1
    26   13   35 1
    27   14   19 1
    28   14   15 1
    29   15   16 1
    30   15   17 2
    31   17   18 1
    32   17   49 1
    33   18   19 2
    34   18   20 1
    35   20   21 2
    36   20   22 1
    37   22   23 1
    38   23   24 1
    39   23   50 1
    40   23   51 1
    41   24   25 1
    42   24   29 1
    43   24   26 1
    44   26   27 1
    45   26   52 1
    46   26   53 1
    47   27   28 1
    48   27   54 1
    49   27   55 1
    50   28   56 1
    51   28   57 1
    52   28   66 1
    53   29   30 1
    54   29   31 1
    55   29   66 1
    56   31   32 1
    57   31   58 1
    58   31   59 1
    59   32   33 1
    60   32   60 1
    61   32   61 1
    62   33   34 1
    63   33   62 1
    64   33   63 1
    65   34   64 1
    66   34   65 1
    67   34   66 1
    68   35   36 1
    69   35   37 1
    70   35   38 1
    71   66   67 1
@<TRIPOS>MOLECULE
ZINC35694932
   65    68     0     0     0
SMALL
USER_CHARGES

@<TRIPOS>ATOM
      1 C1          1.6275    2.8152    1.5457 C.3       1 <0>        -0.1232
      2 C2          1.3543    1.3521    1.3091 C.ar      1 <0>        -0.0701
      3 C3          1.2052    0.8779    0.0187 C.ar      1 <0>        -0.0982
      4 C4          0.9547   -0.4625   -0.2012 C.ar      1 <0>        -0.1035
      5 C5          0.8530   -1.3339    0.8747 C.ar      1 <0>         0.1001
      6 C6          1.0036   -0.8549    2.1690 C.ar      1 <0>        -0.1239
      7 C7          1.2587    0.4857    2.3825 C.ar      1 <0>        -0.0995
      8 N1          0.5984   -2.6947    0.6546 N.pl3     1 <0>        -0.4203
      9 C8         -0.3935   -3.2210   -0.1372 C.2       1 <0>        -0.0223
     10 C9         -0.2783   -4.5712   -0.0651 C.2       1 <0>         0.0586
     11 N2          0.7585   -4.8593    0.7507 N.2       1 <0>        -0.4441
     12 C10         1.2924   -3.7435    1.1817 C.2       1 <0>         0.4406
     13 N3          2.3822   -3.6449    2.0365 N.am      1 <0>        -0.6338
     14 C11         2.9851   -4.7613    2.4912 C.2       1 <0>         0.4866
     15 O1          2.5757   -5.8519    2.1537 O.2       1 <0>        -0.4431
     16 C12         4.1679   -4.6544    3.4189 C.3       1 <0>         0.0807
     17 N4          4.6387   -5.9974    3.7667 N.am      1 <0>        -0.5921
     18 C13         5.7211   -6.6161    2.9974 C.3       1 <0>         0.0979
     19 C14         7.0669   -6.2555    3.6297 C.3       1 <0>        -0.0332
     20 N5          8.1522   -6.8759    2.8584 N.4       1 <0>        -0.3838
     21 C15         8.1885   -6.2951    1.5096 C.3       1 <0>        -0.0554
     22 C16         9.4343   -6.6300    3.5320 C.3       1 <0>        -0.0460
     23 C17         4.0760   -6.6636    4.7943 C.2       1 <0>         0.6271
     24 O2          4.5325   -7.7351    5.1476 O.2       1 <0>        -0.5082
     25 C18         2.9144   -6.0978    5.4864 C.2       1 <0>        -0.2791
     26 C19         2.2659   -6.5555    6.6233 C.2       1 <0>        -0.0413
     27 C20         1.1931   -5.8053    7.0415 C.2       1 <0>        -0.1847
     28 C21         0.8478   -4.6992    6.3372 C.2       1 <0>        -0.2108
     29 S1          1.9718   -4.6374    5.0902 S.3       1 <0>         0.1945
     30 C22        -1.1402   -5.5578   -0.7608 C.ar      1 <0>        -0.0024
     31 C23        -2.1782   -5.1227   -1.5829 C.ar      1 <0>        -0.0968
     32 C24        -2.9769   -6.0445   -2.2282 C.ar      1 <0>        -0.1074
     33 C25        -2.7489   -7.3996   -2.0597 C.ar      1 <0>        -0.0326
     34 C26        -1.7193   -7.8370   -1.2441 C.ar      1 <0>        -0.1102
     35 C27        -0.9113   -6.9232   -0.5990 C.ar      1 <0>        -0.0784
     36 Cl1        -3.7580   -8.5543   -2.8734 Cl        1 <0>        -0.0659
     37 H1          2.7037    2.9881    1.5475 H         1 <0>         0.0777
     38 H2          1.1663    3.4038    0.7527 H         1 <0>         0.0737
     39 H3          1.2103    3.1117    2.5080 H         1 <0>         0.0729
     40 H4          1.2844    1.5563   -0.8179 H         1 <0>         0.1373
     41 H5          0.8377   -0.8322   -1.2092 H         1 <0>         0.1343
     42 H6          0.9247   -1.5304    3.0080 H         1 <0>         0.1276
     43 H7          1.3800    0.8582    3.3889 H         1 <0>         0.1367
     44 H8         -1.1246   -2.6667   -0.7069 H         1 <0>         0.1872
     45 H9          2.7096   -2.7727    2.3064 H         1 <0>         0.4166
     46 H10         4.9691   -4.1052    2.9244 H         1 <0>         0.1295
     47 H11         3.8718   -4.1270    4.3258 H         1 <0>         0.1244
     48 H12         5.5965   -7.6990    3.0011 H         1 <0>         0.1137
     49 H13         5.6923   -6.2506    1.9710 H         1 <0>         0.1042
     50 H14         7.1915   -5.1726    3.6260 H         1 <0>         0.1324
     51 H15         7.0956   -6.6210    4.6562 H         1 <0>         0.1388
     52 H16         7.2372   -6.4775    1.0097 H         1 <0>         0.1240
     53 H17         8.3613   -5.2212    1.5810 H         1 <0>         0.1236
     54 H18         8.9938   -6.7554    0.9373 H         1 <0>         0.1282
     55 H19         9.4074   -7.0610    4.5329 H         1 <0>         0.1247
     56 H20        10.2397   -7.0904    2.9597 H         1 <0>         0.1268
     57 H21         9.6071   -5.5561    3.6034 H         1 <0>         0.1221
     58 H22         2.5835   -7.4452    7.1467 H         1 <0>         0.1543
     59 H23         0.6326   -6.0929    7.9187 H         1 <0>         0.1453
     60 H24         0.0383   -4.0123    6.5355 H         1 <0>         0.1917
     61 H25        -2.3572   -4.0658   -1.7145 H         1 <0>         0.1324
     62 H26        -3.7814   -5.7083   -2.8655 H         1 <0>         0.1378
     63 H27        -1.5455   -8.8952   -1.1159 H         1 <0>         0.1354
     64 H28        -0.1057   -7.2653    0.0338 H         1 <0>         0.1399
     65 H29         7.9923   -7.8700    2.7923 H         1 <0>         0.4311
@<TRIPOS>BOND
     1    1    2 1
     2    1   37 1
     3    1   38 1
     4    1   39 1
     5    2    7 ar
     6    2    3 ar
     7    3    4 ar
     8    3   40 1
     9    4    5 ar
    10    4   41 1
    11    5    6 ar
    12    5    8 1
    13    6    7 ar
    14    6   42 1
    15    7   43 1
    16    8   12 1
    17    8    9 1
    18    9   10 2
    19    9   44 1
    20   10   11 1
    21   10   30 1
    22   11   12 2
    23   12   13 1
    24   13   14 am
    25   13   45 1
    26   14   15 2
    27   14   16 1
    28   16   17 1
    29   16   46 1
    30   16   47 1
    31   17   18 1
    32   17   23 am
    33   18   19 1
    34   18   48 1
    35   18   49 1
    36   19   20 1
    37   19   50 1
    38   19   51 1
    39   20   21 1
    40   20   22 1
    41   20   65 1
    42   21   52 1
    43   21   53 1
    44   21   54 1
    45   22   55 1
    46   22   56 1
    47   22   57 1
    48   23   24 2
    49   23   25 1
    50   25   29 1
    51   25   26 2
    52   26   27 1
    53   26   58 1
    54   27   28 2
    55   27   59 1
    56   28   29 1
    57   28   60 1
    58   30   35 ar
    59   30   31 ar
    60   31   32 ar
    61   31   61 1
    62   32   33 ar
    63   32   62 1
    64   33   34 ar
    65   33   36 1
    66   34   35 ar
    67   34   63 1
    68   35   64 1
@<TRIPOS>MOLECULE
ZINC33812500
   76    78     0     0     0
SMALL
USER_CHARGES

@<TRIPOS>ATOM
      1 C1         -1.5661   -3.5959    3.5633 C.3       1 <0>        -0.1558
      2 C2         -0.0754   -3.6542    3.2237 C.3       1 <0>        -0.1213
      3 C3          0.1883   -4.8341    2.2861 C.3       1 <0>        -0.1231
      4 C4          1.6790   -4.8924    1.9465 C.3       1 <0>        -0.1091
      5 C5          1.9428   -6.0723    1.0089 C.3       1 <0>        -0.1039
      6 H1          1.5642   -6.9884    1.4624 H         1 <0>         0.0852
      7 C6          1.2329   -5.8324   -0.3250 C.3       1 <0>        -0.1152
      8 C7          1.3710   -7.0749   -1.2070 C.3       1 <0>        -0.1578
      9 C8          3.4479   -6.2064    0.7688 C.3       1 <0>         0.0873
     10 N1          4.1250   -6.4597    2.0430 N.am      1 <0>        -0.5190
     11 C9          4.6479   -5.4486    2.7146 C.2       1 <0>         0.5430
     12 O1          4.5750   -4.3092    2.2905 O.2       1 <0>        -0.4614
     13 C10         5.3005   -5.7322    3.9529 C.2       1 <0>        -0.2300
     14 C11         5.9112   -4.8834    4.8239 C.2       1 <0>         0.1085
     15 C12         6.5199   -5.4049    6.0490 C.2       1 <0>        -0.2086
     16 C13         5.7157   -5.9589    7.0593 C.2       1 <0>         0.1001
     17 C14         6.3244   -6.4469    8.2122 C.2       1 <0>        -0.1425
     18 C15         7.7350   -6.3739    8.3396 C.2       1 <0>         0.5438
     19 O2          8.2737   -6.7997    9.3462 O.2       1 <0>        -0.5001
     20 N2          8.4829   -5.8387    7.3579 N.am      1 <0>        -0.4878
     21 C16         7.9132   -5.3610    6.2217 C.2       1 <0>         0.4739
     22 N3          8.7000   -4.8294    5.2420 N.pl3     1 <0>        -0.6768
     23 C17         9.1389   -5.6447    4.0989 C.3       1 <0>         0.1104
     24 C18         8.8254   -4.8804    2.8084 C.3       1 <0>        -0.0247
     25 N4          9.4349   -3.5459    2.8707 N.4       1 <0>        -0.3818
     26 C19         8.8199   -2.7652    3.9515 C.3       1 <0>        -0.0284
     27 C20         9.1285   -3.4232    5.2958 C.3       1 <0>         0.1097
     28 C21         9.2280   -2.8549    1.5910 C.3       1 <0>        -0.0120
     29 C22         9.9679   -1.5158    1.6090 C.3       1 <0>        -0.1884
     30 C23         9.9380   -5.7751    7.5152 C.3       1 <0>         0.0819
     31 C24        10.5733   -7.0195    6.8918 C.3       1 <0>        -0.1694
     32 C25         5.5331   -7.0172    9.2606 C.1       1 <0>         0.2605
     33 N5          4.9053   -7.4696   10.0923 N.1       1 <0>        -0.3835
     34 C26         4.2188   -6.0234    6.8976 C.3       1 <0>        -0.1469
     35 S1          5.0963   -7.5055    4.0473 S.3       1 <0>         0.0589
     36 C27         4.2009   -7.7231    2.5169 C.2       1 <0>         0.2593
     37 S2          3.5950   -9.1668    1.8245 S.2       1 <0>        -0.2669
     38 H2         -1.8636   -4.5229    4.0533 H         1 <0>         0.0546
     39 H3         -1.7540   -2.7553    4.2312 H         1 <0>         0.0553
     40 H4         -2.1427   -3.4679    2.6471 H         1 <0>         0.0558
     41 H5          0.2221   -2.7271    2.7336 H         1 <0>         0.0602
     42 H6          0.5012   -3.7821    4.1398 H         1 <0>         0.0556
     43 H7         -0.1092   -5.7612    2.7762 H         1 <0>         0.0616
     44 H8         -0.3883   -4.7062    1.3700 H         1 <0>         0.0697
     45 H9          1.9766   -3.9654    1.4565 H         1 <0>         0.0692
     46 H10         2.2556   -5.0204    2.8627 H         1 <0>         0.0456
     47 H11         0.1771   -5.6311   -0.1436 H         1 <0>         0.0768
     48 H12         1.6845   -4.9775   -0.8283 H         1 <0>         0.0649
     49 H13         2.4265   -7.3186   -1.3287 H         1 <0>         0.0540
     50 H14         0.8564   -7.9130   -0.7371 H         1 <0>         0.0606
     51 H15         0.9286   -6.8782   -2.1836 H         1 <0>         0.0591
     52 H16         3.6345   -7.0361    0.0869 H         1 <0>         0.1133
     53 H17         3.8296   -5.2838    0.3316 H         1 <0>         0.1066
     54 H18         5.9467   -3.8251    4.6115 H         1 <0>         0.1596
     55 H19        10.2120   -5.8236    4.1671 H         1 <0>         0.0992
     56 H20         8.6053   -6.5951    4.1005 H         1 <0>         0.1258
     57 H21         9.2303   -5.4254    1.9557 H         1 <0>         0.1462
     58 H22         7.7456   -4.7819    2.6975 H         1 <0>         0.1304
     59 H23         9.2207   -1.7516    3.9412 H         1 <0>         0.1493
     60 H24         7.7402   -2.7307    3.8060 H         1 <0>         0.1355
     61 H25         8.5880   -2.9056    6.0883 H         1 <0>         0.1280
     62 H26        10.2004   -3.3739    5.4869 H         1 <0>         0.0956
     63 H27         9.6126   -3.4716    0.7787 H         1 <0>         0.1326
     64 H28         8.1627   -2.6793    1.4409 H         1 <0>         0.1308
     65 H29         9.5834   -0.8991    2.4213 H         1 <0>         0.0811
     66 H30        11.0332   -1.6914    1.7590 H         1 <0>         0.0817
     67 H31         9.8144   -1.0031    0.6595 H         1 <0>         0.1083
     68 H32        10.3187   -4.8840    7.0160 H         1 <0>         0.0932
     69 H33        10.1874   -5.7322    8.5754 H         1 <0>         0.1136
     70 H34        10.3239   -7.0624    5.8316 H         1 <0>         0.0565
     71 H35        11.6559   -6.9721    7.0088 H         1 <0>         0.0848
     72 H36        10.1925   -7.9106    7.3909 H         1 <0>         0.0723
     73 H37         3.9425   -6.9779    6.4497 H         1 <0>         0.1044
     74 H38         3.7435   -5.9291    7.8740 H         1 <0>         0.0914
     75 H39         3.8877   -5.2097    6.2523 H         1 <0>         0.0846
     76 H40        10.4246   -3.6373    3.0446 H         1 <0>         0.4241
@<TRIPOS>BOND
     1    1    2 1
     2    1   38 1
     3    1   39 1
     4    1   40 1
     5    2    3 1
     6    2   41 1
     7    2   42 1
     8    3    4 1
     9    3   43 1
    10    3   44 1
    11    4    5 1
    12    4   45 1
    13    4   46 1
    14    5    6 1
    15    5    7 1
    16    5    9 1
    17    7    8 1
    18    7   47 1
    19    7   48 1
    20    8   49 1
    21    8   50 1
    22    8   51 1
    23    9   10 1
    24    9   52 1
    25    9   53 1
    26   10   36 1
    27   10   11 am
    28   11   12 2
    29   11   13 1
    30   13   14 2
    31   13   35 1
    32   14   15 1
    33   14   54 1
    34   15   21 2
    35   15   16 1
    36   16   17 2
    37   16   34 1
    38   17   18 1
    39   17   32 1
    40   18   19 2
    41   18   20 am
    42   20   21 1
    43   20   30 1
    44   21   22 1
    45   22   27 1
    46   22   23 1
    47   23   24 1
    48   23   55 1
    49   23   56 1
    50   24   25 1
    51   24   57 1
    52   24   58 1
    53   25   26 1
    54   25   28 1
    55   25   76 1
    56   26   27 1
    57   26   59 1
    58   26   60 1
    59   27   61 1
    60   27   62 1
    61   28   29 1
    62   28   63 1
    63   28   64 1
    64   29   65 1
    65   29   66 1
    66   29   67 1
    67   30   31 1
    68   30   68 1
    69   30   69 1
    70   31   70 1
    71   31   71 1
    72   31   72 1
    73   32   33 3
    74   34   73 1
    75   34   74 1
    76   34   75 1
    77   35   36 1
    78   36   37 2
@<TRIPOS>MOLECULE
ZINC36643755
   71    74     0     0     0
SMALL
USER_CHARGES

@<TRIPOS>ATOM
      1 C1          0.9390    2.1926    0.8040 C.3       1 <0>        -0.1165
      2 C2          0.7294    0.7169    0.5812 C.ar      1 <0>        -0.0630
      3 C3          0.7702    0.1948   -0.6986 C.ar      1 <0>        -0.0509
      4 C4          0.5751   -1.1657   -0.8845 C.ar      1 <0>        -0.2013
      5 C5          0.3411   -2.0086    0.1767 C.ar      1 <0>         0.1788
      6 C6          0.2930   -1.5058    1.5016 C.ar      1 <0>         0.0666
      7 C7          0.5025   -0.1169    1.6490 C.ar      1 <0>        -0.1384
      8 S1          0.3765    0.1001    3.4079 S.3       1 <0>         0.1197
      9 C8          0.0721   -1.6112    3.8241 C.2       1 <0>         0.3222
     10 N1          0.0754   -2.1901    2.6464 N.2       1 <0>        -0.5131
     11 N2         -0.1291   -2.1796    5.0710 N.am      1 <0>        -0.4974
     12 C9         -0.3644   -3.6206    5.1898 C.3       1 <0>         0.1029
     13 C10         0.9475   -4.3726    4.9567 C.3       1 <0>        -0.1817
     14 C11         0.7362   -5.8633    5.2290 C.3       1 <0>        -0.0105
     15 N3          1.9958   -6.5853    5.0051 N.4       1 <0>        -0.3864
     16 C12         2.9929   -6.1477    5.9911 C.3       1 <0>        -0.0580
     17 C13         1.7651   -8.0289    5.1496 C.3       1 <0>        -0.0482
     18 C14        -0.1083   -1.4069    6.1751 C.2       1 <0>         0.5578
     19 O1          0.0126   -0.2019    6.0714 O.2       1 <0>        -0.4642
     20 C15        -0.2324   -2.0248    7.5119 C.ar      1 <0>        -0.0749
     21 C16         0.4143   -3.2303    7.7899 C.ar      1 <0>        -0.1310
     22 C17         0.2942   -3.8016    9.0398 C.ar      1 <0>        -0.0278
     23 C18        -0.4656   -3.1828   10.0166 C.ar      1 <0>        -0.6500
     24 C19        -1.1092   -1.9879    9.7478 C.ar      1 <0>        -0.0117
     25 C20        -0.9924   -1.4026    8.5040 C.ar      1 <0>        -0.0715
     26 S2         -0.6146   -3.9201   11.6100 S.o2      1 <0>         2.6853
     27 O2         -1.8214   -3.4262   12.1747 O.2       1 <0>        -0.9407
     28 O3         -0.3654   -5.3087   11.4399 O.2       1 <0>        -0.9497
     29 N4          0.6205   -3.3282   12.5409 N.pl3     1 <0>        -0.9921
     30 C21         1.9198   -4.0127   12.5840 C.3       1 <0>         0.1182
     31 C22         3.0207   -3.0028   12.2452 C.3       1 <0>        -0.1354
     32 C23         2.9120   -1.8009   13.1864 C.3       1 <0>        -0.1211
     33 C24         1.5553   -1.1198   12.9922 C.3       1 <0>        -0.1373
     34 C25         0.4398   -2.1051   13.3347 C.3       1 <0>         0.1157
     35 O4          0.1538   -3.3363   -0.0466 O.3       1 <0>        -0.3055
     36 C26         0.2137   -3.7807   -1.4035 C.3       1 <0>         0.0205
     37 H1          2.0008    2.3908    0.9496 H         1 <0>         0.0778
     38 H2          0.5819    2.7455   -0.0649 H         1 <0>         0.0785
     39 H3          0.3857    2.5087    1.6883 H         1 <0>         0.0670
     40 H4          0.9519    0.8403   -1.5452 H         1 <0>         0.1456
     41 H5          0.6072   -1.5721   -1.8846 H         1 <0>         0.1429
     42 H6         -0.7402   -3.8464    6.1878 H         1 <0>         0.1160
     43 H7         -1.0984   -3.9314    4.4463 H         1 <0>         0.1098
     44 H8          1.2673   -4.2337    3.9240 H         1 <0>         0.1108
     45 H9          1.7127   -3.9853    5.6293 H         1 <0>         0.0945
     46 H10         0.4163   -6.0023    6.2617 H         1 <0>         0.1355
     47 H11        -0.0291   -6.2506    4.5563 H         1 <0>         0.1415
     48 H12         3.1641   -5.0765    5.8839 H         1 <0>         0.1216
     49 H13         2.6270   -6.3583    6.9960 H         1 <0>         0.1259
     50 H14         3.9275   -6.6834    5.8250 H         1 <0>         0.1286
     51 H15         1.0252   -8.3536    4.4180 H         1 <0>         0.1255
     52 H16         2.6997   -8.5646    4.9835 H         1 <0>         0.1263
     53 H17         1.3992   -8.2395    6.1545 H         1 <0>         0.1247
     54 H18         1.0071   -3.7147    7.0281 H         1 <0>         0.1384
     55 H19         0.7941   -4.7342    9.2562 H         1 <0>         0.1475
     56 H20        -1.7010   -1.5102   10.5146 H         1 <0>         0.1563
     57 H21        -1.4916   -0.4676    8.2968 H         1 <0>         0.1516
     58 H22         2.0879   -4.4151   13.5829 H         1 <0>         0.0818
     59 H23         1.9303   -4.8229   11.8549 H         1 <0>         0.0876
     60 H24         3.9963   -3.4734   12.3673 H         1 <0>         0.0779
     61 H25         2.9037   -2.6692   11.2142 H         1 <0>         0.0635
     62 H26         3.0044   -2.1385   14.2187 H         1 <0>         0.0692
     63 H27         3.7094   -1.0919   12.9637 H         1 <0>         0.0679
     64 H28         1.4879   -0.2503   13.6460 H         1 <0>         0.0816
     65 H29         1.4521   -0.8040   11.9541 H         1 <0>         0.0653
     66 H30        -0.5260   -1.6570   13.1007 H         1 <0>         0.0928
     67 H31         0.4844   -2.3484   14.3962 H         1 <0>         0.0826
     68 H32        -0.5559   -3.2742   -1.9860 H         1 <0>         0.0615
     69 H33         1.1947   -3.5494   -1.8186 H         1 <0>         0.0599
     70 H34         0.0481   -4.8574   -1.4408 H         1 <0>         0.1034
     71 H35         2.3345   -6.3903    4.0749 H         1 <0>         0.4296
@<TRIPOS>BOND
     1    1    2 1
     2    1   37 1
     3    1   38 1
     4    1   39 1
     5    2    7 ar
     6    2    3 ar
     7    3    4 ar
     8    3   40 1
     9    4    5 ar
    10    4   41 1
    11    5    6 ar
    12    5   35 1
    13    6   10 1
    14    6    7 ar
    15    7    8 1
    16    8    9 1
    17    9   10 2
    18    9   11 1
    19   11   12 1
    20   11   18 am
    21   12   13 1
    22   12   42 1
    23   12   43 1
    24   13   14 1
    25   13   44 1
    26   13   45 1
    27   14   15 1
    28   14   46 1
    29   14   47 1
    30   15   16 1
    31   15   17 1
    32   15   71 1
    33   16   48 1
    34   16   49 1
    35   16   50 1
    36   17   51 1
    37   17   52 1
    38   17   53 1
    39   18   19 2
    40   18   20 1
    41   20   25 ar
    42   20   21 ar
    43   21   22 ar
    44   21   54 1
    45   22   23 ar
    46   22   55 1
    47   23   24 ar
    48   23   26 1
    49   24   25 ar
    50   24   56 1
    51   25   57 1
    52   26   27 2
    53   26   28 2
    54   26   29 1
    55   29   34 1
    56   29   30 1
    57   30   31 1
    58   30   58 1
    59   30   59 1
    60   31   32 1
    61   31   60 1
    62   31   61 1
    63   32   33 1
    64   32   62 1
    65   32   63 1
    66   33   34 1
    67   33   64 1
    68   33   65 1
    69   34   66 1
    70   34   67 1
    71   35   36 1
    72   36   68 1
    73   36   69 1
    74   36   70 1
@<TRIPOS>MOLECULE
ZINC05226037
   39    40     0     0     0
SMALL
USER_CHARGES
1-[(4-bromophenyl)carbamoyl]ethyl 2-hydroxy-4-methyl-benzoate
@<TRIPOS>ATOM
      1 C1         -2.4877   11.9721    1.6298 C.3       1 <0>        -0.1242
      2 C2         -2.6814   10.4849    1.4828 C.ar      1 <0>        -0.0276
      3 C3         -1.7659    9.7396    0.7574 C.ar      1 <0>        -0.1453
      4 C4         -1.9327    8.3794    0.6163 C.ar      1 <0>        -0.0381
      5 C5         -3.0302    7.7470    1.2071 C.ar      1 <0>        -0.1679
      6 C6         -3.9574    8.5057    1.9353 C.ar      1 <0>         0.1820
      7 C7         -3.7703    9.8734    2.0713 C.ar      1 <0>        -0.1634
      8 O1         -5.0298    7.9044    2.5082 O.3       1 <0>        -0.4791
      9 C8         -3.2151    6.2920    1.0603 C.2       1 <0>         0.5123
     10 O2         -4.1705    5.7459    1.5754 O.2       1 <0>        -0.4889
     11 O3         -2.3245    5.5675    0.3548 O.3       1 <0>        -0.3262
     12 C9         -2.5698    4.1401    0.2520 C.3       1 <0>         0.0750
     13 H1         -3.0931    3.7961    1.1441 H         1 <0>         0.1186
     14 C10        -3.4276    3.8577   -0.9831 C.3       1 <0>        -0.1695
     15 C11        -1.2560    3.4122    0.1283 C.2       1 <0>         0.5192
     16 O4         -0.2154    4.0352    0.1269 O.2       1 <0>        -0.4900
     17 N1         -1.2375    2.0690    0.0191 N.am      1 <0>        -0.6692
     18 C12        -0.0170    1.3840    0.0153 C.ar      1 <0>         0.1628
     19 C13         0.1264    0.2224   -0.7320 C.ar      1 <0>        -0.1380
     20 C14         1.3301   -0.4547   -0.7295 C.ar      1 <0>        -0.0688
     21 C15         2.3926    0.0234    0.0169 C.ar      1 <0>        -0.1057
     22 C16         2.2525    1.1805    0.7624 C.ar      1 <0>        -0.0682
     23 C17         1.0510    1.8615    0.7635 C.ar      1 <0>        -0.1166
     24 Br1         4.0394   -0.9061    0.0174 Br        1 <0>        -0.0472
     25 H2         -2.9907   12.4867    0.8111 H         1 <0>         0.0807
     26 H3         -2.9094   12.3013    2.5795 H         1 <0>         0.0732
     27 H4         -1.4230   12.2040    1.6051 H         1 <0>         0.0747
     28 H5         -0.9177   10.2274    0.3002 H         1 <0>         0.1363
     29 H6         -1.2167    7.8026    0.0497 H         1 <0>         0.1450
     30 H7         -4.4797   10.4613    2.6348 H         1 <0>         0.1404
     31 H8         -4.8719    7.5958    3.4110 H         1 <0>         0.3986
     32 H9         -3.6117    2.7861   -1.0603 H         1 <0>         0.0827
     33 H10        -4.3778    4.3841   -0.8936 H         1 <0>         0.0818
     34 H11        -2.9042    4.2016   -1.8753 H         1 <0>         0.0771
     35 H12        -2.0700    1.5770   -0.0568 H         1 <0>         0.4156
     36 H13        -0.7027   -0.1514   -1.3145 H         1 <0>         0.1373
     37 H14         1.4423   -1.3579   -1.3108 H         1 <0>         0.1391
     38 H15         3.0836    1.5516    1.3438 H         1 <0>         0.1381
     39 H16         0.9423    2.7649    1.3453 H         1 <0>         0.1432
@<TRIPOS>BOND
     1    1    2 1
     2    1   25 1
     3    1   26 1
     4    1   27 1
     5    2    7 ar
     6    2    3 ar
     7    3    4 ar
     8    3   28 1
     9    4    5 ar
    10    4   29 1
    11    5    6 ar
    12    5    9 1
    13    6    7 ar
    14    6    8 1
    15    7   30 1
    16    8   31 1
    17    9   10 2
    18    9   11 1
    19   11   12 1
    20   12   13 1
    21   12   14 1
    22   12   15 1
    23   14   32 1
    24   14   33 1
    25   14   34 1
    26   15   16 2
    27   15   17 am
    28   17   18 1
    29   17   35 1
    30   18   23 ar
    31   18   19 ar
    32   19   20 ar
    33   19   36 1
    34   20   21 ar
    35   20   37 1
    36   21   22 ar
    37   21   24 1
    38   22   23 ar
    39   22   38 1
    40   23   39 1
@<TRIPOS>MOLECULE
ZINC11116842
   51    54     0     0     0
SMALL
USER_CHARGES
3-(4-methoxyphenyl)-9-methyl-N-(o-tolyl)-5-thia-1,2-diazabicyclo[4.3.0]nona-6,8-diene-4-carboxamide
@<TRIPOS>ATOM
      1 C1          4.5789   -0.8759   -0.8186 C.3       1 <0>        -0.1168
      2 C2          4.7667    0.6193   -0.8104 C.ar      1 <0>        -0.1138
      3 C3          6.0344    1.1575   -0.9163 C.ar      1 <0>        -0.1004
      4 C4          6.2081    2.5291   -0.9031 C.ar      1 <0>        -0.1311
      5 C5          5.1134    3.3666   -0.7889 C.ar      1 <0>        -0.1037
      6 C6          3.8429    2.8350   -0.6880 C.ar      1 <0>        -0.1248
      7 C7          3.6651    1.4575   -0.7014 C.ar      1 <0>         0.1460
      8 N1          2.3791    0.9156   -0.5994 N.am      1 <0>        -0.6590
      9 C8          1.3959    1.6206   -0.0054 C.2       1 <0>         0.5447
     10 O1          1.6471    2.6801    0.5289 O.2       1 <0>        -0.4884
     11 C9         -0.0155    1.0925   -0.0052 C.3       1 <0>        -0.0972
     12 H1         -0.0049    0.0026   -0.0156 H         1 <0>         0.1271
     13 C10        -0.7649    1.5982    1.2376 C.3       1 <0>         0.1446
     14 H2         -0.9248    2.6726    1.1473 H         1 <0>         0.0843
     15 N2         -2.0567    0.9301    1.3739 N.3       1 <0>        -0.4587
     16 N3         -2.9283    1.1534    0.3514 N.pl3     1 <0>        -0.2897
     17 C11        -4.2969    1.0794    0.4179 C.2       1 <0>         0.0300
     18 C12        -4.8015    1.3392   -0.8047 C.2       1 <0>        -0.1807
     19 C13        -3.7153    1.5938   -1.6704 C.2       1 <0>        -0.1440
     20 C14        -2.5924    1.4833   -0.9377 C.2       1 <0>        -0.0027
     21 S1         -0.9171    1.7214   -1.4642 S.3       1 <0>        -0.0294
     22 C15        -5.1014    0.7604    1.6516 C.3       1 <0>        -0.0887
     23 C16         0.0664    1.3224    2.4639 C.ar      1 <0>        -0.1465
     24 C17         0.0707    0.0587    3.0249 C.ar      1 <0>        -0.0519
     25 C18         0.8364   -0.1982    4.1457 C.ar      1 <0>        -0.2161
     26 C19         1.5926    0.8161    4.7151 C.ar      1 <0>         0.1445
     27 C20         1.5822    2.0846    4.1536 C.ar      1 <0>        -0.1552
     28 C21         0.8192    2.3349    3.0294 C.ar      1 <0>        -0.0297
     29 O2          2.3426    0.5672    5.8207 O.3       1 <0>        -0.3151
     30 C22         2.3051   -0.7618    6.3445 C.3       1 <0>         0.0259
     31 H3          4.4450   -1.2197   -1.8443 H         1 <0>         0.0729
     32 H4          5.4576   -1.3549   -0.3867 H         1 <0>         0.0735
     33 H5          3.6982   -1.1347   -0.2308 H         1 <0>         0.0608
     34 H6          6.8913    0.5062   -1.0053 H         1 <0>         0.1263
     35 H7          7.2007    2.9474   -0.9819 H         1 <0>         0.1239
     36 H8          5.2523    4.4376   -0.7789 H         1 <0>         0.1260
     37 H9          2.9886    3.4895   -0.5984 H         1 <0>         0.1451
     38 H10         2.1952    0.0325   -0.9561 H         1 <0>         0.4126
     39 H11        -2.4815    1.1425    2.2641 H         1 <0>         0.3773
     40 H12        -5.8474    1.3507   -1.0737 H         1 <0>         0.1499
     41 H13        -3.7748    1.8326   -2.7220 H         1 <0>         0.1494
     42 H14        -5.3382    1.6839    2.1798 H         1 <0>         0.0723
     43 H15        -6.0255    0.2595    1.3633 H         1 <0>         0.0873
     44 H16        -4.5223    0.1069    2.3041 H         1 <0>         0.0664
     45 H17        -0.5216   -0.7294    2.5839 H         1 <0>         0.1321
     46 H18         0.8428   -1.1866    4.5810 H         1 <0>         0.1311
     47 H19         2.1703    2.8758    4.5947 H         1 <0>         0.1342
     48 H20         0.8111    3.3222    2.5917 H         1 <0>         0.1389
     49 H21         1.2817   -1.0142    6.6219 H         1 <0>         0.0572
     50 H22         2.6591   -1.4610    5.5869 H         1 <0>         0.0565
     51 H23         2.9458   -0.8239    7.2240 H         1 <0>         0.1026
@<TRIPOS>BOND
     1    1    2 1
     2    1   31 1
     3    1   32 1
     4    1   33 1
     5    2    7 ar
     6    2    3 ar
     7    3    4 ar
     8    3   34 1
     9    4    5 ar
    10    4   35 1
    11    5    6 ar
    12    5   36 1
    13    6    7 ar
    14    6   37 1
    15    7    8 1
    16    8    9 am
    17    8   38 1
    18    9   10 2
    19    9   11 1
    20   11   12 1
    21   11   21 1
    22   11   13 1
    23   13   14 1
    24   13   15 1
    25   13   23 1
    26   15   16 1
    27   15   39 1
    28   16   20 1
    29   16   17 1
    30   17   18 2
    31   17   22 1
    32   18   19 1
    33   18   40 1
    34   19   20 2
    35   19   41 1
    36   20   21 1
    37   22   42 1
    38   22   43 1
    39   22   44 1
    40   23   28 ar
    41   23   24 ar
    42   24   25 ar
    43   24   45 1
    44   25   26 ar
    45   25   46 1
    46   26   27 ar
    47   26   29 1
    48   27   28 ar
    49   27   47 1
    50   28   48 1
    51   29   30 1
    52   30   49 1
    53   30   50 1
    54   30   51 1
@<TRIPOS>MOLECULE
ZINC26564097
   50    52     0     0     0
SMALL
USER_CHARGES
N-cyclopentyl-4-[(3,4-dimethylphenyl)sulfonylamino]benzamide
@<TRIPOS>ATOM
      1 C1          0.2196    5.5988    3.6705 C.3       1 <0>        -0.1268
      2 C2         -0.1748    4.4298    2.8050 C.ar      1 <0>        -0.0271
      3 C3         -0.5361    3.2292    3.3877 C.ar      1 <0>        -0.1366
      4 C4         -0.9024    2.1585    2.5941 C.ar      1 <0>        -0.0180
      5 C5         -0.8978    2.2850    1.2173 C.ar      1 <0>        -0.6781
      6 C6         -0.5370    3.4854    0.6349 C.ar      1 <0>        -0.0153
      7 C7         -0.1756    4.5580    1.4289 C.ar      1 <0>        -0.1083
      8 C8          0.2178    5.8668    0.7938 C.3       1 <0>        -0.1182
      9 S1         -1.3589    0.9182    0.2055 S.o2      1 <0>         2.6908
     10 O1         -1.9167    1.4625   -0.9828 O.2       1 <0>        -0.9519
     11 O2         -2.0746    0.0181    1.0402 O.2       1 <0>        -0.9478
     12 N1          0.0365    0.1446   -0.2379 N.pl3     1 <0>        -1.0789
     13 C9          0.8383   -0.4516    0.7291 C.ar      1 <0>         0.1547
     14 C10         2.0308    0.1553    1.1133 C.ar      1 <0>        -0.1197
     15 C11         2.8237   -0.4293    2.0742 C.ar      1 <0>        -0.0807
     16 C12         2.4364   -1.6401    2.6559 C.ar      1 <0>        -0.1268
     17 C13         1.2412   -2.2499    2.2638 C.ar      1 <0>        -0.0508
     18 C14         0.4497   -1.6572    1.3068 C.ar      1 <0>        -0.1125
     19 C15         3.2875   -2.2731    3.6812 C.2       1 <0>         0.5579
     20 O3          2.9497   -3.3264    4.1860 O.2       1 <0>        -0.5363
     21 N2          4.4396   -1.6839    4.0582 N.am      1 <0>        -0.7348
     22 C16         5.2848   -2.3126    5.0764 C.3       1 <0>         0.1379
     23 C17         4.8450   -1.8570    6.4831 C.3       1 <0>        -0.1373
     24 C18         6.1718   -1.7225    7.2709 C.3       1 <0>        -0.1254
     25 C19         7.1411   -1.1421    6.2112 C.3       1 <0>        -0.1195
     26 C20         6.7447   -1.8580    4.9035 C.3       1 <0>        -0.1257
     27 H1          0.1595    5.3076    4.7296 H         1 <0>         0.0712
     28 H2         -0.4627    6.4409    3.4825 H         1 <0>         0.0790
     29 H3          1.2498    5.9011    3.4312 H         1 <0>         0.0785
     30 H4         -0.5358    3.1291    4.4630 H         1 <0>         0.1329
     31 H5         -1.1887    1.2219    3.0493 H         1 <0>         0.1398
     32 H6         -0.5377    3.5856   -0.4405 H         1 <0>         0.1382
     33 H7          0.1565    5.7763   -0.3008 H         1 <0>         0.0698
     34 H8          1.2483    6.1199    1.0837 H         1 <0>         0.0735
     35 H9         -0.4643    6.6595    1.1349 H         1 <0>         0.0741
     36 H10         0.3291    0.1024   -1.2974 H         1 <0>         0.4549
     37 H11         2.3318    1.0883    0.6601 H         1 <0>         0.1345
     38 H12         3.7465    0.0443    2.3751 H         1 <0>         0.1302
     39 H13         0.9392   -3.1851    2.7116 H         1 <0>         0.1437
     40 H14        -0.4738   -2.1278    1.0034 H         1 <0>         0.1429
     41 H15         4.7453   -0.7310    3.6014 H         1 <0>         0.4142
     42 H16         5.1618   -3.3951    4.9247 H         1 <0>         0.0923
     43 H17         4.3107   -0.8984    6.4077 H         1 <0>         0.0697
     44 H18         4.1791   -2.6144    6.9223 H         1 <0>         0.0704
     45 H19         6.0235   -1.0470    8.1263 H         1 <0>         0.0688
     46 H20         6.4839   -2.7124    7.6353 H         1 <0>         0.0700
     47 H21         7.0017   -0.0530    6.1442 H         1 <0>         0.0680
     48 H22         8.1785   -1.3616    6.5039 H         1 <0>         0.0698
     49 H23         7.3837   -2.7359    4.7277 H         1 <0>         0.0767
     50 H24         6.8166   -1.1743    4.0448 H         1 <0>         0.0720
@<TRIPOS>BOND
     1    1    2 1
     2    1   27 1
     3    1   28 1
     4    1   29 1
     5    2    7 ar
     6    2    3 ar
     7    3    4 ar
     8    3   30 1
     9    4    5 ar
    10    4   31 1
    11    5    6 ar
    12    5    9 1
    13    6    7 ar
    14    6   32 1
    15    7    8 1
    16    8   33 1
    17    8   34 1
    18    8   35 1
    19    9   10 2
    20    9   11 2
    21    9   12 1
    22   12   13 1
    23   12   36 1
    24   13   18 ar
    25   13   14 ar
    26   14   15 ar
    27   14   37 1
    28   15   16 ar
    29   15   38 1
    30   16   17 ar
    31   16   19 1
    32   17   18 ar
    33   17   39 1
    34   18   40 1
    35   19   20 2
    36   19   21 am
    37   21   22 1
    38   21   41 1
    39   22   26 1
    40   22   23 1
    41   22   42 1
    42   23   24 1
    43   23   43 1
    44   23   44 1
    45   24   25 1
    46   24   45 1
    47   24   46 1
    48   25   26 1
    49   25   47 1
    50   25   48 1
    51   26   49 1
    52   26   50 1
@<TRIPOS>MOLECULE
ZINC41629280
   38    39     0     0     0
SMALL
USER_CHARGES

@<TRIPOS>ATOM
      1 C1         -0.0244    1.7610   -0.1975 C.3       1 <0>        -0.1592
      2 C2          0.0289    0.2359   -0.0878 C.3       1 <0>        -0.1040
      3 C3         -1.3754   -0.3049    0.1888 C.3       1 <0>        -0.0991
      4 H1         -1.7877    0.1882    1.0691 H         1 <0>         0.1360
      5 C4         -1.3026   -1.7902    0.4329 C.2       1 <0>         0.5291
      6 O1         -1.4982   -2.5650   -0.4795 O.2       1 <0>        -0.4956
      7 N1         -1.0201   -2.2576    1.6651 N.am      1 <0>        -0.6612
      8 C5         -1.0512   -3.6344    1.9155 C.ar      1 <0>         0.1648
      9 C6         -0.6426   -4.5291    0.9349 C.ar      1 <0>        -0.1053
     10 C7         -0.6736   -5.8871    1.1840 C.ar      1 <0>        -0.0782
     11 C8         -1.1114   -6.3574    2.4096 C.ar      1 <0>        -0.0453
     12 C9         -1.5199   -5.4680    3.3892 C.ar      1 <0>        -0.0123
     13 C10        -1.4852   -4.1075    3.1464 C.ar      1 <0>        -0.1243
     14 Cl1        -2.0697   -6.0614    4.9252 Cl        1 <0>        -0.0404
     15 Cl2        -1.1490   -8.0651    2.7193 Cl        1 <0>        -0.0450
     16 S1         -2.4416    0.0212   -1.2421 S.3       1 <0>         0.0652
     17 C11        -4.0561   -0.3988   -0.6751 C.2       1 <0>         0.3675
     18 N2         -5.1001   -0.3742   -1.5492 N.am      1 <0>        -0.6141
     19 H2         -4.9535   -0.1271   -2.4757 H         1 <0>         0.4210
     20 C12        -6.3399   -0.6953   -1.1216 C.2       1 <0>         0.5305
     21 O2         -7.2866   -0.6789   -1.8912 O.2       1 <0>        -0.5324
     22 C13        -6.5191   -1.0494    0.2270 C.2       1 <0>        -0.2965
     23 C14        -5.4356   -1.0566    1.0573 C.2       1 <0>         0.1937
     24 N3         -4.2323   -0.7371    0.5878 N.2       1 <0>        -0.5459
     25 C15        -5.6016   -1.4321    2.5073 C.3       1 <0>        -0.1076
     26 H3          0.9869    2.1531   -0.3050 H         1 <0>         0.0705
     27 H4         -0.6175    2.0422   -1.0677 H         1 <0>         0.0667
     28 H5         -0.4805    2.1743    0.7021 H         1 <0>         0.0647
     29 H6          0.4019   -0.1828   -1.0225 H         1 <0>         0.0856
     30 H7          0.6943   -0.0467    0.7280 H         1 <0>         0.0937
     31 H8         -0.7952   -1.6399    2.3783 H         1 <0>         0.4167
     32 H9         -0.3011   -4.1630   -0.0220 H         1 <0>         0.1544
     33 H10        -0.3561   -6.5828    0.4214 H         1 <0>         0.1480
     34 H11        -1.7993   -3.4135    3.9120 H         1 <0>         0.1469
     35 H12        -7.4982   -1.3111    0.6003 H         1 <0>         0.1579
     36 H13        -5.4680   -2.5078    2.6217 H         1 <0>         0.0871
     37 H14        -4.8568   -0.9077    3.1060 H         1 <0>         0.0813
     38 H15        -6.6002   -1.1523    2.8430 H         1 <0>         0.0849
@<TRIPOS>BOND
     1    1    2 1
     2    1   26 1
     3    1   27 1
     4    1   28 1
     5    2    3 1
     6    2   29 1
     7    2   30 1
     8    3    4 1
     9    3    5 1
    10    3   16 1
    11    5    6 2
    12    5    7 am
    13    7    8 1
    14    7   31 1
    15    8   13 ar
    16    8    9 ar
    17    9   10 ar
    18    9   32 1
    19   10   11 ar
    20   10   33 1
    21   11   12 ar
    22   11   15 1
    23   12   13 ar
    24   12   14 1
    25   13   34 1
    26   16   17 1
    27   17   24 2
    28   17   18 1
    29   18   19 1
    30   18   20 am
    31   20   21 2
    32   20   22 1
    33   22   23 2
    34   22   35 1
    35   23   24 1
    36   23   25 1
    37   25   36 1
    38   25   37 1
    39   25   38 1
@<TRIPOS>MOLECULE
ZINC58885738
   42    43     0     0     0
SMALL
USER_CHARGES

@<TRIPOS>ATOM
      1 C1          0.1208    1.1397    0.9056 C.ar      1 <0>        -0.0756
      2 C2          1.3084    1.8441    0.9366 C.ar      1 <0>        -0.0867
      3 C3          2.3855    1.4205    0.1782 C.ar      1 <0>        -0.0042
      4 C4          2.2761    0.2905   -0.6137 C.ar      1 <0>        -0.1565
      5 C5          1.0914   -0.4176   -0.6486 C.ar      1 <0>        -0.0800
      6 C6          0.0083    0.0051    0.1122 C.ar      1 <0>         0.1469
      7 N1         -1.1921   -0.7100    0.0793 N.am      1 <0>        -0.6399
      8 C7         -2.3669   -0.0608    0.2015 C.2       1 <0>         0.5197
      9 O1         -2.3882    1.1522    0.2468 O.2       1 <0>        -0.4921
     10 C8         -3.6410   -0.8327    0.2812 C.2       1 <0>         0.5296
     11 O2         -3.6196   -2.0458    0.2360 O.2       1 <0>        -0.4755
     12 N2         -4.8157   -0.1834    0.4035 N.am      1 <0>        -0.5614
     13 N3         -6.0122   -0.9083    0.4783 N.2       1 <0>        -0.2431
     14 C9         -7.1342   -0.2920    0.4929 C.2       1 <0>         0.1220
     15 C10        -7.1754    1.2331    0.4957 C.3       1 <0>        -0.1241
     16 C11        -8.2893    1.7464   -0.3766 C.3       1 <0>        -0.1128
     17 C12        -9.5784    1.8812    0.4458 C.3       1 <0>        -0.1200
     18 C13       -10.2776    0.6044    0.6132 C.3       1 <0>        -0.1227
     19 C14        -9.4562   -0.4203    1.4079 C.3       1 <0>        -0.1170
     20 C15        -8.4434   -1.0752    0.5015 C.3       1 <0>        -0.0592
     21 C16         3.4511   -0.1670   -1.4390 C.3       1 <0>         0.5114
     22 F1          3.1014   -1.3206   -2.1489 F         1 <0>        -0.1729
     23 F2          3.8109    0.8427   -2.3380 F         1 <0>        -0.1668
     24 F3          4.5319   -0.4478   -0.5962 F         1 <0>        -0.1668
     25 Cl1         3.8767    2.3084    0.2195 Cl        1 <0>        -0.0363
     26 H1         -0.7181    1.4681    1.5012 H         1 <0>         0.1547
     27 H2          1.3963    2.7265    1.5530 H         1 <0>         0.1546
     28 H3          1.0065   -1.2990   -1.2669 H         1 <0>         0.1561
     29 H4         -1.1798   -1.6736   -0.0316 H         1 <0>         0.4305
     30 H5         -4.8327    0.7857    0.4396 H         1 <0>         0.3988
     31 H6         -7.3289    1.5849    1.5158 H         1 <0>         0.0950
     32 H7         -6.2250    1.6172    0.1251 H         1 <0>         0.0687
     33 H8         -8.0135    2.7209   -0.7796 H         1 <0>         0.0718
     34 H9         -8.4555    1.0502   -1.1986 H         1 <0>         0.0703
     35 H10        -9.3283    2.2773    1.4300 H         1 <0>         0.0625
     36 H11       -10.2439    2.5839   -0.0555 H         1 <0>         0.0653
     37 H12       -11.2174    0.7835    1.1356 H         1 <0>         0.0653
     38 H13       -10.4977    0.1917   -0.3714 H         1 <0>         0.0643
     39 H14        -8.9412    0.0843    2.2254 H         1 <0>         0.0682
     40 H15       -10.1226   -1.1802    1.8161 H         1 <0>         0.0767
     41 H16        -8.8407   -1.1188   -0.5125 H         1 <0>         0.0942
     42 H17        -8.2514   -2.0889    0.8533 H         1 <0>         0.0874
@<TRIPOS>BOND
     1    1    6 ar
     2    1    2 ar
     3    1   26 1
     4    2    3 ar
     5    2   27 1
     6    3    4 ar
     7    3   25 1
     8    4    5 ar
     9    4   21 1
    10    5    6 ar
    11    5   28 1
    12    6    7 1
    13    7    8 am
    14    7   29 1
    15    8    9 2
    16    8   10 1
    17   10   11 2
    18   10   12 am
    19   12   13 1
    20   12   30 1
    21   13   14 2
    22   14   20 1
    23   14   15 1
    24   15   16 1
    25   15   31 1
    26   15   32 1
    27   16   17 1
    28   16   33 1
    29   16   34 1
    30   17   18 1
    31   17   35 1
    32   17   36 1
    33   18   19 1
    34   18   37 1
    35   18   38 1
    36   19   20 1
    37   19   39 1
    38   19   40 1
    39   20   41 1
    40   20   42 1
    41   21   22 1
    42   21   23 1
    43   21   24 1
@<TRIPOS>MOLECULE
ZINC08790473
   65    69     0     0     0
SMALL
USER_CHARGES
2-[2-(3,4-dimethoxyphenyl)ethyl-methyl-trioxo-BLAHyl]acetamide
@<TRIPOS>ATOM
      1 C1        -10.8202    9.4712   -1.5712 C.3       1 <0>        -0.1231
      2 C2         -9.4025    9.5588   -2.0747 C.ar      1 <0>        -0.0845
      3 C3         -8.9003   10.7664   -2.5245 C.ar      1 <0>        -0.0459
      4 C4         -7.6036   10.8521   -2.9869 C.ar      1 <0>        -0.1172
      5 C5         -6.7894    9.7219   -3.0041 C.ar      1 <0>         0.1627
      6 C6         -7.3057    8.5123   -2.5489 C.ar      1 <0>        -0.1957
      7 C7         -8.6008    8.4313   -2.0884 C.ar      1 <0>        -0.0424
      8 C8         -6.1961    7.5103   -2.6968 C.3       1 <0>         0.0929
      9 C9         -5.8308    6.8731   -1.3504 C.3       1 <0>        -0.1189
     10 H1         -6.0805    7.5026   -0.4963 H         1 <0>         0.1855
     11 C10        -6.5887    5.5160   -1.3425 C.3       1 <0>        -0.1363
     12 H2         -7.2452    5.4039   -0.4796 H         1 <0>         0.1887
     13 C11        -7.3444    5.4758   -2.6874 C.3       1 <0>         0.0607
     14 H3         -8.3673    5.8293   -2.5582 H         1 <0>         0.1780
     15 C12        -7.3410    4.0560   -3.2575 C.3       1 <0>        -0.1716
     16 C13        -8.1859    4.0134   -4.5046 C.2       1 <0>         0.5155
     17 O1         -8.7365    5.0196   -4.8987 O.2       1 <0>        -0.5529
     18 N1         -8.3297    2.8572   -5.1821 N.am      1 <0>        -0.8322
     19 C14        -5.4754    4.4940   -1.3687 C.2       1 <0>         0.5181
     20 O2         -5.6285    3.2916   -1.3821 O.2       1 <0>        -0.4389
     21 N2         -4.2944    5.1231   -1.3713 N.am      1 <0>        -0.5643
     22 C15        -4.3764    6.4585   -1.3638 C.2       1 <0>         0.5122
     23 O3         -3.4317    7.2182   -1.3668 O.2       1 <0>        -0.4089
     24 C16        -3.0160    4.4079   -1.3874 C.3       1 <0>         0.1009
     25 C17        -2.5568    4.1516    0.0494 C.3       1 <0>        -0.0862
     26 C18        -1.2417    3.4160    0.0328 C.ar      1 <0>        -0.0940
     27 C19        -0.0548    4.1250    0.0248 C.ar      1 <0>        -0.1053
     28 C20         1.1542    3.4548    0.0096 C.ar      1 <0>        -0.1706
     29 C21         1.1782    2.0694    0.0019 C.ar      1 <0>         0.1077
     30 C22        -0.0164    1.3557    0.0095 C.ar      1 <0>         0.1029
     31 C23        -1.2248    2.0337    0.0189 C.ar      1 <0>        -0.1652
     32 O4          0.0021   -0.0041    0.0020 O.3       1 <0>        -0.3033
     33 C24        -1.2622   -0.6701    0.0105 C.3       1 <0>         0.0261
     34 O5          2.3667    1.4085   -0.0135 O.3       1 <0>        -0.3042
     35 C25         3.5524    2.2061   -0.0205 C.3       1 <0>         0.0242
     36 C26        -5.0422    8.2860   -3.2704 C.2       1 <0>         0.5271
     37 O6         -3.9436    7.8522   -3.5460 O.2       1 <0>        -0.4272
     38 N3         -5.4659    9.5562   -3.4181 N.am      1 <0>        -0.6380
     39 H4        -11.4860    9.2309   -2.4001 H         1 <0>         0.0823
     40 H5        -10.8888    8.6917   -0.8124 H         1 <0>         0.0746
     41 H6        -11.1113   10.4277   -1.1369 H         1 <0>         0.0791
     42 H7         -9.5264   11.6463   -2.5140 H         1 <0>         0.1496
     43 H8         -7.2184   11.7983   -3.3371 H         1 <0>         0.1458
     44 H9         -8.9910    7.4873   -1.7378 H         1 <0>         0.1374
     45 H10        -6.3193    3.7645   -3.5007 H         1 <0>         0.1217
     46 H11        -7.7493    3.3667   -2.5183 H         1 <0>         0.1630
     47 H12        -7.8893    2.0524   -4.8669 H         1 <0>         0.4128
     48 H13        -8.8735    2.8298   -5.9848 H         1 <0>         0.4173
     49 H14        -2.2694    5.0099   -1.9055 H         1 <0>         0.1074
     50 H15        -3.1384    3.4564   -1.9049 H         1 <0>         0.1049
     51 H16        -3.3034    3.5497    0.5675 H         1 <0>         0.0801
     52 H17        -2.4344    5.1031    0.5669 H         1 <0>         0.0816
     53 H18        -0.0722    5.2048    0.0308 H         1 <0>         0.1279
     54 H19         2.0799    4.0110    0.0041 H         1 <0>         0.1391
     55 H20        -2.1534    1.4823    0.0199 H         1 <0>         0.1357
     56 H21        -1.8316   -0.3800   -0.8725 H         1 <0>         0.0536
     57 H22        -1.1047   -1.7486    0.0032 H         1 <0>         0.1040
     58 H23        -1.8146   -0.3896    0.9073 H         1 <0>         0.0553
     59 H24         4.4274    1.5561   -0.0327 H         1 <0>         0.1048
     60 H25         3.5585    2.8403   -0.9069 H         1 <0>         0.0565
     61 H26         3.5759    2.8301    0.8729 H         1 <0>         0.0572
     62 H27        -4.9155   10.2727   -3.7710 H         1 <0>         0.4380
     63 N4         -6.5953    6.3993   -3.5426 N.4       1 <0>        -0.4950
     64 H28        -5.7669    5.9319   -3.9295 H         1 <0>         0.4318
     65 H29        -7.1897    6.7332   -4.3104 H         1 <0>         0.4569
@<TRIPOS>BOND
     1    1    2 1
     2    1   39 1
     3    1   40 1
     4    1   41 1
     5    2    7 ar
     6    2    3 ar
     7    3    4 ar
     8    3   42 1
     9    4    5 ar
    10    4   43 1
    11    5   38 1
    12    5    6 ar
    13    6    7 ar
    14    6    8 1
    15    7   44 1
    16    8    9 1
    17    8   36 1
    18    8   63 1
    19    9   10 1
    20    9   22 1
    21    9   11 1
    22   11   12 1
    23   11   13 1
    24   11   19 1
    25   13   14 1
    26   13   15 1
    27   13   63 1
    28   15   16 1
    29   15   45 1
    30   15   46 1
    31   16   17 2
    32   16   18 am
    33   18   47 1
    34   18   48 1
    35   19   20 2
    36   19   21 am
    37   21   22 am
    38   21   24 1
    39   22   23 2
    40   24   25 1
    41   24   49 1
    42   24   50 1
    43   25   26 1
    44   25   51 1
    45   25   52 1
    46   26   31 ar
    47   26   27 ar
    48   27   28 ar
    49   27   53 1
    50   28   29 ar
    51   28   54 1
    52   29   30 ar
    53   29   34 1
    54   30   31 ar
    55   30   32 1
    56   31   55 1
    57   32   33 1
    58   33   56 1
    59   33   57 1
    60   33   58 1
    61   34   35 1
    62   35   59 1
    63   35   60 1
    64   35   61 1
    65   36   37 2
    66   36   38 am
    67   38   62 1
    68   63   64 1
    69   63   65 1
@<TRIPOS>MOLECULE
ZINC19927166
   48    51     0     0     0
SMALL
USER_CHARGES
3-(4-amino-1,2,5-oxadiazol-3-yl)-N-[(3-bromophenyl)methyleneamino]-5-(pyrrolidin-1-ylmethyl)triazole-4-carboxamide
@<TRIPOS>ATOM
      1 C1         -1.7465    3.8920   -3.3970 C.ar      1 <0>        -0.1150
      2 C2         -0.5658    4.6052   -3.4188 C.ar      1 <0>        -0.0667
      3 C3          0.0161    5.0238   -2.2200 C.ar      1 <0>        -0.0674
      4 C4         -0.6029    4.7165   -1.0059 C.ar      1 <0>        -0.0465
      5 C5         -1.7838    4.0024   -0.9988 C.ar      1 <0>        -0.0991
      6 C6         -2.3574    3.5955   -2.1918 C.ar      1 <0>        -0.0639
      7 Br1        -2.6242    3.5849    0.6429 Br        1 <0>        -0.0359
      8 C7          1.2779    5.7869   -2.2358 C.2       1 <0>         0.1455
      9 N1          1.8160    6.1743   -1.1201 N.2       1 <0>        -0.2313
     10 N2          3.0148    6.8993   -1.1352 N.am      1 <0>        -0.5685
     11 C8          3.5736    7.3017    0.0234 C.2       1 <0>         0.6028
     12 O1          2.9911    7.1182    1.0757 O.2       1 <0>        -0.4657
     13 C9          4.8877    7.9626    0.0157 C.2       1 <0>         0.0087
     14 C10         5.1389    9.3089    0.0712 C.2       1 <0>        -0.0265
     15 N3          6.4650    9.4456    0.0386 N.2       1 <0>        -0.1980
     16 N4          7.0142    8.2860   -0.0318 N.2       1 <0>        -0.0189
     17 N5          6.1204    7.3597   -0.0427 N.pl3     1 <0>        -0.1949
     18 C11         6.3616    5.9839   -0.1060 C.2       1 <0>         0.2494
     19 C12         7.6777    5.3405   -0.0559 C.2       1 <0>         0.3679
     20 N6          7.5067    4.0498   -0.1415 N.2       1 <0>        -0.3267
     21 O2          6.1159    3.8025   -0.2479 O.3       1 <0>         0.0792
     22 N7          5.4543    5.0547   -0.2139 N.2       1 <0>        -0.2353
     23 N8          8.8992    5.9937    0.0622 N.pl3     1 <0>        -0.8260
     24 C13         4.1189   10.4152    0.1537 C.3       1 <0>         0.0868
     25 N9          3.8290   10.7099    1.5633 N.4       1 <0>        -0.4150
     26 C14         5.0801   10.9670    2.3216 C.3       1 <0>        -0.0025
     27 C15         4.5865   11.7473    3.5658 C.3       1 <0>        -0.1418
     28 C16         3.4624   12.6393    2.9909 C.3       1 <0>        -0.1407
     29 C17         3.0194   11.9410    1.6918 C.3       1 <0>         0.0006
     30 H1         -2.1974    3.5683   -4.3234 H         1 <0>         0.1429
     31 H2         -0.0922    4.8392   -4.3609 H         1 <0>         0.1386
     32 H3         -0.1583    5.0367   -0.0752 H         1 <0>         0.1441
     33 H4         -3.2839    3.0407   -2.1810 H         1 <0>         0.1406
     34 H5          1.7630    6.0278   -3.1932 H         1 <0>         0.1352
     35 H6          3.4999    7.1401   -2.0926 H         1 <0>         0.4090
     36 H7          9.8330    5.4130    0.0906 H         1 <0>         0.4565
     37 H8          8.9319    7.0913    0.1272 H         1 <0>         0.4515
     38 H9          4.5158   11.3171   -0.3353 H         1 <0>         0.1607
     39 H10         3.1946   10.1002   -0.3526 H         1 <0>         0.1501
     40 H11         5.5523   10.0092    2.5855 H         1 <0>         0.1216
     41 H12         5.7703   11.5574    1.7010 H         1 <0>         0.1388
     42 H13         4.2191   11.0376    4.3217 H         1 <0>         0.0980
     43 H14         5.4182   12.3321    3.9856 H         1 <0>         0.1180
     44 H15         2.6385   12.7042    3.7168 H         1 <0>         0.1082
     45 H16         3.8580   13.6467    2.7943 H         1 <0>         0.1076
     46 H17         3.1983   12.5899    0.8218 H         1 <0>         0.1339
     47 H18         1.9529   11.6754    1.7380 H         1 <0>         0.1355
     48 H19         3.2906    9.8313    1.9482 H         1 <0>         0.4544
@<TRIPOS>BOND
     1    1    6 ar
     2    1    2 ar
     3    1   30 1
     4    2    3 ar
     5    2   31 1
     6    3    4 ar
     7    3    8 1
     8    4    5 ar
     9    4   32 1
    10    5    6 ar
    11    5    7 1
    12    6   33 1
    13    8    9 2
    14    8   34 1
    15    9   10 1
    16   10   11 am
    17   10   35 1
    18   11   12 2
    19   11   13 1
    20   13   17 1
    21   13   14 2
    22   14   15 1
    23   14   24 1
    24   15   16 2
    25   16   17 1
    26   17   18 1
    27   18   22 2
    28   18   19 1
    29   19   20 2
    30   19   23 1
    31   20   21 1
    32   21   22 1
    33   23   36 1
    34   23   37 1
    35   24   25 1
    36   24   38 1
    37   24   39 1
    38   25   29 1
    39   25   26 1
    40   25   48 1
    41   26   27 1
    42   26   40 1
    43   26   41 1
    44   27   28 1
    45   27   42 1
    46   27   43 1
    47   28   29 1
    48   28   44 1
    49   28   45 1
    50   29   46 1
    51   29   47 1
@<TRIPOS>MOLECULE
ZINC03633187
   57    60     0     0     0
SMALL
USER_CHARGES

@<TRIPOS>ATOM
      1 C1         -0.0187    1.5258    0.0104 C.3       1 <0>        -0.1532
      2 C2          0.0021   -0.0041    0.0020 C.3       1 <0>        -0.1038
      3 C3         -1.4339   -0.5358    0.0229 C.3       1 <0>        -0.1413
      4 C4         -1.4051   -2.0640    0.0946 C.3       1 <0>        -0.0069
      5 N1         -0.7073   -2.4871    1.3147 N.4       1 <0>        -0.3779
      6 C5          0.6906   -2.0421    1.2688 C.3       1 <0>        -0.0152
      7 C6          0.7425   -0.5130    1.2422 C.3       1 <0>        -0.1407
      8 C7         -0.7502   -3.9518    1.4187 C.3       1 <0>         0.0580
      9 C8         -0.1431   -4.3804    2.7297 C.2       1 <0>         0.0772
     10 C9          1.1717   -4.6690    2.9629 C.2       1 <0>        -0.0389
     11 N2          1.3100   -5.0101    4.2560 N.2       1 <0>        -0.1578
     12 N3          0.1653   -4.9523    4.8425 N.2       1 <0>         0.0124
     13 N4         -0.7934   -4.5476    3.9027 N.pl3     1 <0>        -0.2862
     14 C10        -2.1602   -4.3558    4.1341 C.2       1 <0>         0.2859
     15 C11        -2.8467   -4.5368    5.4163 C.2       1 <0>         0.3587
     16 N5         -4.1118   -4.2670    5.2459 N.2       1 <0>        -0.3099
     17 O1         -4.3000   -3.9095    3.8880 O.3       1 <0>         0.0810
     18 N6         -3.0383   -3.9805    3.2477 N.2       1 <0>        -0.2869
     19 N7         -2.2517   -4.9296    6.6100 N.pl3     1 <0>        -0.7967
     20 C12         2.2561   -4.6154    1.9649 C.2       1 <0>         0.6248
     21 O2          2.0119   -4.2915    0.8182 O.2       1 <0>        -0.5000
     22 N8          3.5178   -4.9254    2.3234 N.am      1 <0>        -0.5564
     23 N9          4.5480   -4.8745    1.3753 N.2       1 <0>        -0.2395
     24 C13         5.7629   -5.1730    1.7205 C.2       1 <0>         0.1487
     25 C14         6.8473   -5.1194    0.7224 C.ar      1 <0>        -0.0717
     26 C15         6.5714   -4.7422   -0.5942 C.ar      1 <0>        -0.0429
     27 C16         7.5906   -4.6939   -1.5221 C.ar      1 <0>        -0.1231
     28 C17         8.8840   -5.0179   -1.1516 C.ar      1 <0>        -0.0458
     29 C18         9.1645   -5.3928    0.1503 C.ar      1 <0>        -0.1838
     30 C19         8.1560   -5.4400    1.0904 C.ar      1 <0>        -0.0320
     31 C20        10.5761   -5.7443    0.5438 C.3       1 <0>         0.5087
     32 F1         11.4155   -5.6178   -0.5683 F         1 <0>        -0.1730
     33 F2         11.0076   -4.8787    1.5547 F         1 <0>        -0.1738
     34 F3         10.6156   -7.0626    1.0103 F         1 <0>        -0.1733
     35 H1          1.0039    1.9031    0.0027 H         1 <0>         0.0677
     36 H2         -0.5459    1.8868   -0.8726 H         1 <0>         0.0691
     37 H3         -0.5289    1.8773    0.9072 H         1 <0>         0.0608
     38 H4          0.5096   -0.3568   -0.8958 H         1 <0>         0.0936
     39 H5         -1.9559   -0.1403    0.8942 H         1 <0>         0.0880
     40 H6         -1.9508   -0.2237   -0.8846 H         1 <0>         0.1190
     41 H7         -2.4259   -2.4459    0.1094 H         1 <0>         0.1371
     42 H8         -0.8832   -2.4585   -0.7772 H         1 <0>         0.1393
     43 H9          1.2170   -2.4078    2.1504 H         1 <0>         0.1108
     44 H10         1.1679   -2.4370    0.3719 H         1 <0>         0.1578
     45 H11         1.7812   -0.1846    1.2063 H         1 <0>         0.1147
     46 H12         0.2657   -0.1170    2.1388 H         1 <0>         0.0835
     47 H13        -1.7855   -4.2894    1.3701 H         1 <0>         0.1589
     48 H14        -0.1859   -4.3911    0.5961 H         1 <0>         0.1857
     49 H15        -1.2992   -5.1101    6.6407 H         1 <0>         0.4291
     50 H16        -2.7892   -5.0232    7.4120 H         1 <0>         0.4314
     51 H17         3.7126   -5.1837    3.2378 H         1 <0>         0.4009
     52 H18         5.9797   -5.4606    2.7386 H         1 <0>         0.1341
     53 H19         5.5624   -4.4894   -0.8847 H         1 <0>         0.1447
     54 H20         7.3787   -4.4028   -2.5403 H         1 <0>         0.1440
     55 H21         9.6782   -4.9783   -1.8824 H         1 <0>         0.1465
     56 H22         8.3771   -5.7281    2.1075 H         1 <0>         0.1436
     57 H23        -1.1621   -2.0815    2.1189 H         1 <0>         0.4154
@<TRIPOS>BOND
     1    1    2 1
     2    1   35 1
     3    1   36 1
     4    1   37 1
     5    2    7 1
     6    2    3 1
     7    2   38 1
     8    3    4 1
     9    3   39 1
    10    3   40 1
    11    4    5 1
    12    4   41 1
    13    4   42 1
    14    5    6 1
    15    5    8 1
    16    5   57 1
    17    6    7 1
    18    6   43 1
    19    6   44 1
    20    7   45 1
    21    7   46 1
    22    8    9 1
    23    8   47 1
    24    8   48 1
    25    9   13 1
    26    9   10 2
    27   10   11 1
    28   10   20 1
    29   11   12 2
    30   12   13 1
    31   13   14 1
    32   14   18 2
    33   14   15 1
    34   15   16 2
    35   15   19 1
    36   16   17 1
    37   17   18 1
    38   19   49 1
    39   19   50 1
    40   20   21 2
    41   20   22 am
    42   22   23 1
    43   22   51 1
    44   23   24 2
    45   24   25 1
    46   24   52 1
    47   25   30 ar
    48   25   26 ar
    49   26   27 ar
    50   26   53 1
    51   27   28 ar
    52   27   54 1
    53   28   29 ar
    54   28   55 1
    55   29   30 ar
    56   29   31 1
    57   30   56 1
    58   31   32 1
    59   31   33 1
    60   31   34 1
@<TRIPOS>MOLECULE
ZINC45632538
   72    74     0     0     0
SMALL
USER_CHARGES

@<TRIPOS>ATOM
      1 C1          1.3286   -0.8898    2.0680 C.3       1 <0>        -0.1550
      2 C2          0.4556   -1.0753    0.8253 C.3       1 <0>         0.0599
      3 O1          1.2504   -1.5969   -0.2416 O.3       1 <0>        -0.3476
      4 C3          0.6270   -1.8200   -1.4174 C.2       1 <0>         0.5363
      5 O2         -0.5599   -1.5776   -1.5324 O.2       1 <0>        -0.4784
      6 C4          1.3532   -2.3357   -2.5164 C.2       1 <0>        -0.2411
      7 C5          1.6276   -3.6543   -2.6150 C.2       1 <0>         0.2074
      8 N1          2.3284   -4.1508   -3.6767 N.am      1 <0>        -0.6389
      9 C6          2.7902   -3.3947   -4.6806 C.2       1 <0>         0.7057
     10 O3          3.4045   -3.9280   -5.5838 O.2       1 <0>        -0.5554
     11 N2          2.5956   -2.0618   -4.7227 N.am      1 <0>        -0.7080
     12 C7          1.8444   -1.4282   -3.6260 C.3       1 <0>         0.2429
     13 H1          2.4855   -0.6681   -3.1795 H         1 <0>         0.0936
     14 C8          0.6478   -0.7297   -4.2188 C.ar      1 <0>        -0.1117
     15 C9         -0.1572   -1.3896   -5.1284 C.ar      1 <0>        -0.0927
     16 C10        -1.2548   -0.7490   -5.6722 C.ar      1 <0>        -0.1189
     17 C11        -1.5476    0.5514   -5.3061 C.ar      1 <0>        -0.1077
     18 C12        -0.7432    1.2110   -4.3958 C.ar      1 <0>        -0.1123
     19 C13         0.3520    0.5689   -3.8488 C.ar      1 <0>        -0.0994
     20 C14         1.1530   -4.5929   -1.5358 C.3       1 <0>         0.0839
     21 N3          0.1822   -5.5390   -2.1018 N.3       1 <0>        -0.5509
     22 C15        -1.0214   -4.8308   -2.6003 C.3       1 <0>         0.0345
     23 C16        -1.6752   -5.6846   -3.6569 C.3       1 <0>        -0.1356
     24 C17        -2.7593   -6.6103   -3.0821 C.3       1 <0>        -0.0146
     25 N4         -2.3580   -7.2321   -1.8002 N.4       1 <0>        -0.3694
     26 C18        -0.9809   -7.6700   -1.8125 C.3       1 <0>        -0.0154
     27 C19        -0.1094   -6.5613   -1.1934 C.3       1 <0>         0.0452
     28 C20        -3.2240   -8.3900   -1.5405 C.3       1 <0>        -0.0358
     29 C21        -4.6417   -7.9213   -1.3370 C.2       1 <0>         0.5013
     30 O4         -4.9049   -6.7392   -1.4019 O.2       1 <0>        -0.5227
     31 N5         -5.6172   -8.8159   -1.0828 N.am      1 <0>        -0.6955
     32 C22        -6.9955   -8.3603   -0.8850 C.3       1 <0>         0.1674
     33 C23        -7.4781   -7.6344   -2.1423 C.3       1 <0>        -0.1673
     34 C24        -7.8974   -9.5663   -0.6145 C.3       1 <0>        -0.1619
     35 C25        -7.0503   -7.4046    0.3085 C.3       1 <0>        -0.1676
     36 H2          1.7483   -1.8512    2.3640 H         1 <0>         0.0662
     37 H3          2.1372   -0.1941    1.8435 H         1 <0>         0.0709
     38 H4          0.7224   -0.4918    2.8818 H         1 <0>         0.0834
     39 H5         -0.3529   -1.7709    1.0498 H         1 <0>         0.0652
     40 H6          0.0360   -0.1138    0.5293 H         1 <0>         0.0727
     41 H7          2.5017   -5.1048   -3.7049 H         1 <0>         0.4306
     42 H8          2.9392   -1.5329   -5.4596 H         1 <0>         0.4376
     43 H9          0.0716   -2.4056   -5.4145 H         1 <0>         0.1113
     44 H10        -1.8833   -1.2643   -6.3834 H         1 <0>         0.1218
     45 H11        -2.4048    1.0522   -5.7315 H         1 <0>         0.1245
     46 H12        -0.9718    2.2271   -4.1100 H         1 <0>         0.1258
     47 H13         0.9784    1.0829   -3.1347 H         1 <0>         0.1205
     48 H14         2.0035   -5.1427   -1.1326 H         1 <0>         0.1184
     49 H15         0.6796   -4.0201   -0.7384 H         1 <0>         0.0741
     50 H16        -1.7180   -4.6688   -1.7777 H         1 <0>         0.0532
     51 H17        -0.7304   -3.8731   -3.0317 H         1 <0>         0.1103
     52 H18        -2.1281   -5.0339   -4.4049 H         1 <0>         0.1140
     53 H19        -0.9112   -6.2942   -4.1395 H         1 <0>         0.1008
     54 H20        -3.6687   -6.0308   -2.9227 H         1 <0>         0.1460
     55 H21        -2.9689   -7.3984   -3.8053 H         1 <0>         0.1257
     56 H22        -0.8819   -8.5836   -1.2263 H         1 <0>         0.1428
     57 H23        -0.6643   -7.8542   -2.8391 H         1 <0>         0.1464
     58 H24         0.8253   -7.0008   -0.8452 H         1 <0>         0.1252
     59 H25        -0.6357   -6.1347   -0.3395 H         1 <0>         0.0481
     60 H26        -3.1849   -9.0709   -2.3908 H         1 <0>         0.1599
     61 H27        -2.8801   -8.9072   -0.6447 H         1 <0>         0.1598
     62 H28        -5.4068   -9.7614   -1.0309 H         1 <0>         0.4091
     63 H29        -7.4390   -8.3153   -2.9926 H         1 <0>         0.0587
     64 H30        -8.5036   -7.2954   -1.9951 H         1 <0>         0.0747
     65 H31        -6.8356   -6.7752   -2.3351 H         1 <0>         0.0760
     66 H32        -7.5535  -10.0835    0.2813 H         1 <0>         0.0671
     67 H33        -8.9228   -9.2273   -0.4673 H         1 <0>         0.0843
     68 H34        -7.8583  -10.2472   -1.4648 H         1 <0>         0.0672
     69 H35        -6.4078   -6.5454    0.1158 H         1 <0>         0.0761
     70 H36        -8.0758   -7.0656    0.4557 H         1 <0>         0.0747
     71 H37        -6.7065   -7.9218    1.2043 H         1 <0>         0.0585
     72 H38        -2.4813   -6.5601   -1.0577 H         1 <0>         0.4239
@<TRIPOS>BOND
     1    1    2 1
     2    1   36 1
     3    1   37 1
     4    1   38 1
     5    2    3 1
     6    2   39 1
     7    2   40 1
     8    3    4 1
     9    4    5 2
    10    4    6 1
    11    6   12 1
    12    6    7 2
    13    7    8 1
    14    7   20 1
    15    8    9 am
    16    8   41 1
    17    9   10 2
    18    9   11 am
    19   11   12 1
    20   11   42 1
    21   12   13 1
    22   12   14 1
    23   14   19 ar
    24   14   15 ar
    25   15   16 ar
    26   15   43 1
    27   16   17 ar
    28   16   44 1
    29   17   18 ar
    30   17   45 1
    31   18   19 ar
    32   18   46 1
    33   19   47 1
    34   20   21 1
    35   20   48 1
    36   20   49 1
    37   21   27 1
    38   21   22 1
    39   22   23 1
    40   22   50 1
    41   22   51 1
    42   23   24 1
    43   23   52 1
    44   23   53 1
    45   24   25 1
    46   24   54 1
    47   24   55 1
    48   25   26 1
    49   25   28 1
    50   25   72 1
    51   26   27 1
    52   26   56 1
    53   26   57 1
    54   27   58 1
    55   27   59 1
    56   28   29 1
    57   28   60 1
    58   28   61 1
    59   29   30 2
    60   29   31 am
    61   31   32 1
    62   31   62 1
    63   32   33 1
    64   32   34 1
    65   32   35 1
    66   33   63 1
    67   33   64 1
    68   33   65 1
    69   34   66 1
    70   34   67 1
    71   34   68 1
    72   35   69 1
    73   35   70 1
    74   35   71 1
@<TRIPOS>MOLECULE
ZINC58157152
   56    58     0     0     0
SMALL
USER_CHARGES

@<TRIPOS>ATOM
      1 C1         -0.5796    0.9924    0.0154 C.ar      1 <0>        -0.0934
      2 C2          0.3960    1.9568   -0.1645 C.ar      1 <0>        -0.0824
      3 C3          1.7303    1.6087   -0.1215 C.ar      1 <0>        -0.0585
      4 C4          2.0949    0.2813    0.1040 C.ar      1 <0>        -0.0783
      5 C5          1.1070   -0.6862    0.2846 C.ar      1 <0>        -0.1354
      6 C6         -0.2244   -0.3255    0.2393 C.ar      1 <0>        -0.0926
      7 C7          1.4923   -2.1226    0.5282 C.3       1 <0>         0.0344
      8 N1          1.8490   -2.3008    1.9420 N.4       1 <0>        -0.3817
      9 C8          0.6651   -2.0660    2.7772 C.3       1 <0>        -0.0116
     10 C9          1.0495   -2.1708    4.2547 C.3       1 <0>        -0.1453
     11 C10         1.6038   -3.5707    4.5342 C.3       1 <0>        -0.1381
     12 C11         2.7926   -3.8331    3.6052 C.3       1 <0>        -0.1457
     13 C12         2.3436   -3.6668    2.1518 C.3       1 <0>        -0.0080
     14 C13         3.5250   -0.0990    0.1508 C.2       1 <0>         0.4021
     15 N2          4.3239    0.4781    0.9995 N.2       1 <0>        -0.4078
     16 O1          3.8505    1.5395    1.8084 O.3       1 <0>        -0.2032
     17 C14         4.8606    2.1533    2.6115 C.3       1 <0>         0.0611
     18 C15         4.2284    3.1797    3.5159 C.2       1 <0>         0.5176
     19 O2          3.0221    3.3035    3.5428 O.2       1 <0>        -0.4936
     20 N3          5.0034    3.9601    4.2950 N.am      1 <0>        -0.6658
     21 C16         4.4142    4.8450    5.2055 C.ar      1 <0>         0.1510
     22 C17         5.0100    6.0718    5.4680 C.ar      1 <0>        -0.0782
     23 C18         4.4264    6.9432    6.3664 C.ar      1 <0>        -0.0869
     24 C19         3.2491    6.5948    7.0052 C.ar      1 <0>         0.0008
     25 C20         2.6536    5.3732    6.7455 C.ar      1 <0>        -0.0261
     26 C21         3.2302    4.5003    5.8434 C.ar      1 <0>        -0.0510
     27 N4          1.3948    5.0036    7.4309 N.pl3     1 <0>         0.0311
     28 O3          0.8740    3.9363    7.2043 O.2       1 <0>        -0.1592
     29 O4          0.8875    5.7689    8.2173 O.3       1 <0>        -0.1238
     30 Cl1         2.5187    7.6921    8.1349 Cl        1 <0>         0.0053
     31 N5          4.0119   -1.0691   -0.7090 N.pl3     1 <0>        -0.8299
     32 H1         -1.6228    1.2705   -0.0146 H         1 <0>         0.1415
     33 H2          0.1125    2.9841   -0.3394 H         1 <0>         0.1412
     34 H3          2.4910    2.3623   -0.2625 H         1 <0>         0.1363
     35 H4         -0.9905   -1.0738    0.3794 H         1 <0>         0.1384
     36 H5          0.6518   -2.7711    0.2810 H         1 <0>         0.1421
     37 H6          2.3467   -2.3806   -0.0974 H         1 <0>         0.1345
     38 H7          0.2698   -1.0706    2.5748 H         1 <0>         0.1298
     39 H8         -0.0956   -2.8118    2.5464 H         1 <0>         0.1303
     40 H9          1.8099   -1.4251    4.4866 H         1 <0>         0.0853
     41 H10         0.1687   -1.9979    4.8731 H         1 <0>         0.1142
     42 H11         1.9316   -3.6324    5.5719 H         1 <0>         0.0947
     43 H12         0.8273   -4.3134    4.3513 H         1 <0>         0.0831
     44 H13         3.5893   -3.1220    3.8237 H         1 <0>         0.0853
     45 H14         3.1578   -4.8485    3.7594 H         1 <0>         0.1136
     46 H15         1.5472   -4.3785    1.9344 H         1 <0>         0.1314
     47 H16         3.1876   -3.8531    1.4877 H         1 <0>         0.1285
     48 H17         5.3564    1.3933    3.2153 H         1 <0>         0.0985
     49 H18         5.5924    2.6392    1.9662 H         1 <0>         0.0956
     50 H19         5.9694    3.9084    4.2247 H         1 <0>         0.4232
     51 H20         5.9290    6.3439    4.9703 H         1 <0>         0.1590
     52 H21         4.8893    7.8973    6.5709 H         1 <0>         0.1666
     53 H22         2.7626    3.5487    5.6377 H         1 <0>         0.1687
     54 H23         3.4161   -1.4994   -1.3419 H         1 <0>         0.4162
     55 H24         4.9489   -1.3182   -0.6783 H         1 <0>         0.4161
     56 H25         2.5704   -1.6410    2.1916 H         1 <0>         0.4191
@<TRIPOS>BOND
     1    1    6 ar
     2    1    2 ar
     3    1   32 1
     4    2    3 ar
     5    2   33 1
     6    3    4 ar
     7    3   34 1
     8    4    5 ar
     9    4   14 1
    10    5    6 ar
    11    5    7 1
    12    6   35 1
    13    7    8 1
    14    7   36 1
    15    7   37 1
    16    8   13 1
    17    8    9 1
    18    8   56 1
    19    9   10 1
    20    9   38 1
    21    9   39 1
    22   10   11 1
    23   10   40 1
    24   10   41 1
    25   11   12 1
    26   11   42 1
    27   11   43 1
    28   12   13 1
    29   12   44 1
    30   12   45 1
    31   13   46 1
    32   13   47 1
    33   14   15 2
    34   14   31 1
    35   15   16 1
    36   16   17 1
    37   17   18 1
    38   17   48 1
    39   17   49 1
    40   18   19 2
    41   18   20 am
    42   20   21 1
    43   20   50 1
    44   21   26 ar
    45   21   22 ar
    46   22   23 ar
    47   22   51 1
    48   23   24 ar
    49   23   52 1
    50   24   25 ar
    51   24   30 1
    52   25   26 ar
    53   25   27 1
    54   26   53 1
    55   27   28 2
    56   27   29 1
    57   31   54 1
    58   31   55 1
@<TRIPOS>MOLECULE
ZINC09836191
   62    65     0     0     0
SMALL
USER_CHARGES
6-bromo-3-(3,4-dimethylphenyl)-N-[(1-ethylpyrrolidin-2-yl)methyl]-4-hydroxy-2-oxo-1H-quinazoline-4-carboxamide
@<TRIPOS>ATOM
      1 C1          1.5822    5.6133    8.2303 C.3       1 <0>        -0.1853
      2 C2          2.3197    5.2872    6.9301 C.3       1 <0>        -0.0049
      3 C3          3.0305    2.9956    7.3452 C.3       1 <0>        -0.0065
      4 C4          3.0812    1.6868    6.5279 C.3       1 <0>        -0.1462
      5 C5          2.6936    2.0957    5.0919 C.3       1 <0>        -0.1484
      6 C6          2.4414    3.6171    5.1623 C.3       1 <0>         0.0124
      7 H1          3.3394    4.1650    4.8766 H         1 <0>         0.1475
      8 C7          1.2701    4.0062    4.2581 C.3       1 <0>         0.1071
      9 N1          1.6070    3.7033    2.8649 N.am      1 <0>        -0.7179
     10 C8          0.7509    4.0331    1.8776 C.2       1 <0>         0.4998
     11 O1         -0.2983    4.5807    2.1424 O.2       1 <0>        -0.4957
     12 C9          1.0975    3.7215    0.4445 C.3       1 <0>         0.3991
     13 C10         1.1529    2.2187    0.2945 C.ar      1 <0>        -0.1794
     14 C11         0.0655    1.4300    0.5916 C.ar      1 <0>        -0.0293
     15 C12         0.1526    0.0555    0.4417 C.ar      1 <0>        -0.1171
     16 C13         1.3294   -0.5189   -0.0056 C.ar      1 <0>        -0.0310
     17 C14         2.4218    0.2716   -0.3047 C.ar      1 <0>        -0.1460
     18 C15         2.3393    1.6497   -0.1556 C.ar      1 <0>         0.2036
     19 N2          3.4319    2.4654   -0.4530 N.am      1 <0>        -0.6579
     20 C16         3.4022    3.7981   -0.3256 C.2       1 <0>         0.7100
     21 O2          4.4024    4.4296   -0.6071 O.2       1 <0>        -0.5326
     22 N3          2.3173    4.4710    0.0988 N.am      1 <0>        -0.5431
     23 C17         2.3476    5.8655    0.2109 C.ar      1 <0>         0.1370
     24 C18         1.8235    6.6567   -0.8031 C.ar      1 <0>        -0.0828
     25 C19         1.8498    8.0325   -0.6869 C.ar      1 <0>        -0.1072
     26 C20         2.4079    8.6229    0.4324 C.ar      1 <0>        -0.0656
     27 C21         2.9357    7.8381    1.4410 C.ar      1 <0>        -0.0864
     28 C22         2.9069    6.4612    1.3335 C.ar      1 <0>        -0.0977
     29 C23         3.5424    8.4855    2.6590 C.3       1 <0>        -0.1130
     30 C24         2.4406   10.1247    0.5531 C.3       1 <0>        -0.1240
     31 Br1        -1.3372   -1.0360    0.8478 Br        1 <0>        -0.0240
     32 O3          0.0340    4.2075   -0.3770 O.3       1 <0>        -0.5294
     33 H2          1.7416    6.6609    8.4856 H         1 <0>         0.1090
     34 H3          0.5159    5.4295    8.0991 H         1 <0>         0.0817
     35 H4          1.9637    4.9817    9.0326 H         1 <0>         0.0802
     36 H5          3.3861    5.4710    7.0613 H         1 <0>         0.1289
     37 H6          1.9382    5.9188    6.1278 H         1 <0>         0.1296
     38 H7          2.6396    2.8048    8.3446 H         1 <0>         0.1406
     39 H8          4.0213    3.4462    7.4032 H         1 <0>         0.1338
     40 H9          2.3651    0.9661    6.9227 H         1 <0>         0.1026
     41 H10         4.0879    1.2692    6.5440 H         1 <0>         0.1128
     42 H11         1.7873    1.5757    4.7817 H         1 <0>         0.1047
     43 H12         3.5089    1.8787    4.4017 H         1 <0>         0.1110
     44 H13         1.0711    5.0730    4.3601 H         1 <0>         0.0949
     45 H14         0.3838    3.4420    4.5486 H         1 <0>         0.0936
     46 H15         2.4461    3.2653    2.6531 H         1 <0>         0.4066
     47 H16        -0.8535    1.8808    0.9360 H         1 <0>         0.1426
     48 H17         1.3940   -1.5907   -0.1217 H         1 <0>         0.1499
     49 H18         3.3380   -0.1810   -0.6542 H         1 <0>         0.1506
     50 H19         4.2499    2.0481   -0.7655 H         1 <0>         0.4343
     51 H20         1.3919    6.1964   -1.6796 H         1 <0>         0.1310
     52 H21         1.4381    8.6483   -1.4729 H         1 <0>         0.1335
     53 H22         3.3192    5.8488    2.1217 H         1 <0>         0.1133
     54 H23         4.6048    8.6588    2.4873 H         1 <0>         0.0751
     55 H24         3.0455    9.4366    2.8506 H         1 <0>         0.0759
     56 H25         3.4159    7.8295    3.5203 H         1 <0>         0.0558
     57 H26         3.3644   10.5043    0.1166 H         1 <0>         0.0779
     58 H27         1.5874   10.5503    0.0248 H         1 <0>         0.0717
     59 H28         2.3935   10.4057    1.6052 H         1 <0>         0.0725
     60 H29        -0.8352    3.8519   -0.1463 H         1 <0>         0.4017
     61 N4          2.1244    3.8458    6.5766 N.4       1 <0>        -0.3907
     62 H30         1.1505    3.5813    6.7658 H         1 <0>         0.4293
@<TRIPOS>BOND
     1    1    2 1
     2    1   33 1
     3    1   34 1
     4    1   35 1
     5    2   36 1
     6    2   37 1
     7    2   61 1
     8    3    4 1
     9    3   38 1
    10    3   39 1
    11    3   61 1
    12    4    5 1
    13    4   40 1
    14    4   41 1
    15    5    6 1
    16    5   42 1
    17    5   43 1
    18    6    7 1
    19    6    8 1
    20    6   61 1
    21    8    9 1
    22    8   44 1
    23    8   45 1
    24    9   10 am
    25    9   46 1
    26   10   11 2
    27   10   12 1
    28   12   22 1
    29   12   13 1
    30   12   32 1
    31   13   18 ar
    32   13   14 ar
    33   14   15 ar
    34   14   47 1
    35   15   16 ar
    36   15   31 1
    37   16   17 ar
    38   16   48 1
    39   17   18 ar
    40   17   49 1
    41   18   19 1
    42   19   20 am
    43   19   50 1
    44   20   21 2
    45   20   22 am
    46   22   23 1
    47   23   28 ar
    48   23   24 ar
    49   24   25 ar
    50   24   51 1
    51   25   26 ar
    52   25   52 1
    53   26   27 ar
    54   26   30 1
    55   27   28 ar
    56   27   29 1
    57   28   53 1
    58   29   54 1
    59   29   55 1
    60   29   56 1
    61   30   57 1
    62   30   58 1
    63   30   59 1
    64   32   60 1
    65   61   62 1
@<TRIPOS>MOLECULE
ZINC33033966
   74    77     0     0     0
SMALL
USER_CHARGES
3-[(4-cyclohexylphenyl)sulfonylamino]-N-[(1S)-1-methylpropyl]-4-piperazin-1-yl-benzamide
@<TRIPOS>ATOM
      1 C1          1.8574    0.4583    0.0293 C.3       1 <0>        -0.1553
      2 C2          1.6667    1.9719    0.1456 C.3       1 <0>        -0.1315
      3 C3          0.6013    2.2720    1.2019 C.3       1 <0>         0.1419
      4 H1         -0.3208    1.7099    0.9926 H         1 <0>         0.0919
      5 C4          0.3209    3.7758    1.2306 C.3       1 <0>        -0.1658
      6 N1          1.0817    1.8396    2.5167 N.am      1 <0>        -0.7285
      7 C5          0.2000    1.5258    3.4865 C.2       1 <0>         0.5541
      8 O1         -0.9942    1.6014    3.2703 O.2       1 <0>        -0.5269
      9 C6          0.6838    1.0904    4.8104 C.ar      1 <0>        -0.1252
     10 C7          2.0559    0.9976    5.0583 C.ar      1 <0>        -0.0519
     11 C8          2.5077    0.5966    6.2963 C.ar      1 <0>        -0.1645
     12 C9          1.6014    0.2722    7.2987 C.ar      1 <0>         0.1177
     13 C10         0.2277    0.3573    7.0559 C.ar      1 <0>         0.1232
     14 C11        -0.2299    0.7646    5.8172 C.ar      1 <0>        -0.0214
     15 N2         -0.6842    0.0305    8.0672 N.pl3     1 <0>        -1.0727
     16 S1         -1.3603   -1.4804    8.1158 S.o2      1 <0>         2.6842
     17 O2         -2.2081   -1.5095    9.2558 O.2       1 <0>        -0.9503
     18 O3         -1.8363   -1.7548    6.8053 O.2       1 <0>        -0.9409
     19 C12        -0.0572   -2.6245    8.4281 C.ar      1 <0>        -0.6584
     20 C13         0.6290   -3.1955    7.3726 C.ar      1 <0>        -0.0030
     21 C14         1.6549   -4.0891    7.6177 C.ar      1 <0>        -0.1321
     22 C15         1.9870   -4.4203    8.9180 C.ar      1 <0>        -0.0160
     23 C16         1.2974   -3.8533    9.9734 C.ar      1 <0>        -0.1485
     24 C17         0.2753   -2.9554    9.7284 C.ar      1 <0>        -0.0125
     25 C18         3.1013   -5.3992    9.1851 C.3       1 <0>        -0.0572
     26 C19         4.4062   -4.8597    8.5958 C.3       1 <0>        -0.1039
     27 C20         5.5374   -5.8535    8.8669 C.3       1 <0>        -0.1214
     28 C21         5.2019   -7.1977    8.2177 C.3       1 <0>        -0.1246
     29 C22         3.8971   -7.7371    8.8070 C.3       1 <0>        -0.1223
     30 C23         2.7658   -6.7434    8.5358 C.3       1 <0>        -0.1142
     31 N3          2.0630   -0.1380    8.5479 N.pl3     1 <0>        -0.4807
     32 C24         3.5094   -0.3961    8.5161 C.3       1 <0>         0.0195
     33 C25         3.9617   -0.9192    9.8815 C.3       1 <0>        -0.0023
     34 N4          3.6286    0.0692   10.9167 N.4       1 <0>        -0.5375
     35 C26         2.1822    0.3273   10.9485 C.3       1 <0>        -0.0042
     36 C27         1.7300    0.8504    9.5831 C.3       1 <0>         0.0212
     37 H2          2.6234    0.2425   -0.7301 H         1 <0>         0.0591
     38 H3          0.9065   -0.0094   -0.2657 H         1 <0>         0.0577
     39 H4          2.1794    0.0537    1.0002 H         1 <0>         0.0524
     40 H5          2.6176    2.4396    0.4406 H         1 <0>         0.0689
     41 H6          1.3447    2.3766   -0.8253 H         1 <0>         0.0828
     42 H7         -0.4451    3.9915    1.9900 H         1 <0>         0.0610
     43 H8         -0.0398    4.1004    0.2434 H         1 <0>         0.0700
     44 H9          1.2460    4.3166    1.4790 H         1 <0>         0.0576
     45 H10         2.1620    1.7711    2.7123 H         1 <0>         0.4130
     46 H11         2.7627    1.2444    4.2798 H         1 <0>         0.1362
     47 H12         3.5687    0.5296    6.4869 H         1 <0>         0.1384
     48 H13        -1.2910    0.8307    5.6272 H         1 <0>         0.1538
     49 H14        -0.9514    0.7774    8.8293 H         1 <0>         0.4444
     50 H15         0.3663   -2.9404    6.3566 H         1 <0>         0.1346
     51 H16         2.1939   -4.5318    6.7931 H         1 <0>         0.1296
     52 H17         1.5569   -4.1121   10.9893 H         1 <0>         0.1269
     53 H18        -0.2637   -2.5127   10.5529 H         1 <0>         0.1335
     54 H19         3.2060   -5.5250   10.2729 H         1 <0>         0.0815
     55 H20         4.2898   -4.7238    7.5105 H         1 <0>         0.0674
     56 H21         4.6474   -3.8933    9.0626 H         1 <0>         0.0531
     57 H22         6.4755   -5.4657    8.4432 H         1 <0>         0.0649
     58 H23         5.6538   -5.9894    9.9522 H         1 <0>         0.0628
     59 H24         5.0855   -7.0618    7.1324 H         1 <0>         0.0637
     60 H25         6.0152   -7.9122    8.4126 H         1 <0>         0.0663
     61 H26         3.6559   -8.7036    8.3403 H         1 <0>         0.0685
     62 H27         4.0135   -7.8729    9.8924 H         1 <0>         0.0638
     63 H28         1.8276   -7.1312    8.9594 H         1 <0>         0.0667
     64 H29         2.6494   -6.6075    7.4505 H         1 <0>         0.0676
     65 H30         3.7310   -1.1466    7.7431 H         1 <0>         0.1286
     66 H31         4.0434    0.5373    8.2847 H         1 <0>         0.0741
     67 H32         3.4481   -1.8672   10.0995 H         1 <0>         0.1383
     68 H33         5.0489   -1.0858    9.8685 H         1 <0>         0.1412
     69 H34         3.9420   -0.3104   11.9004 H         1 <0>         0.4589
     70 H35         1.6482   -0.6061   11.1799 H         1 <0>         0.1377
     71 H36         1.9605    1.0778   11.7216 H         1 <0>         0.1444
     72 H37         2.2437    1.7981    9.3640 H         1 <0>         0.0745
     73 H38         0.6427    1.0169    9.5949 H         1 <0>         0.1268
     74 H39         4.1518    1.0132   10.7043 H         1 <0>         0.4489
@<TRIPOS>BOND
     1    1    2 1
     2    1   37 1
     3    1   38 1
     4    1   39 1
     5    2    3 1
     6    2   40 1
     7    2   41 1
     8    3    4 1
     9    3    5 1
    10    3    6 1
    11    5   42 1
    12    5   43 1
    13    5   44 1
    14    6    7 am
    15    6   45 1
    16    7    8 2
    17    7    9 1
    18    9   14 ar
    19    9   10 ar
    20   10   11 ar
    21   10   46 1
    22   11   12 ar
    23   11   47 1
    24   12   13 ar
    25   12   31 1
    26   13   14 ar
    27   13   15 1
    28   14   48 1
    29   15   16 1
    30   15   49 1
    31   16   17 2
    32   16   18 2
    33   16   19 1
    34   19   24 ar
    35   19   20 ar
    36   20   21 ar
    37   20   50 1
    38   21   22 ar
    39   21   51 1
    40   22   23 ar
    41   22   25 1
    42   23   24 ar
    43   23   52 1
    44   24   53 1
    45   25   30 1
    46   25   26 1
    47   25   54 1
    48   26   27 1
    49   26   55 1
    50   26   56 1
    51   27   28 1
    52   27   57 1
    53   27   58 1
    54   28   29 1
    55   28   59 1
    56   28   60 1
    57   29   30 1
    58   29   61 1
    59   29   62 1
    60   30   63 1
    61   30   64 1
    62   31   36 1
    63   31   32 1
    64   32   33 1
    65   32   65 1
    66   32   66 1
    67   33   34 1
    68   33   67 1
    69   33   68 1
    70   34   35 1
    71   34   69 1
    72   34   74 1
    73   35   36 1
    74   35   70 1
    75   35   71 1
    76   36   72 1
    77   36   73 1
@<TRIPOS>MOLECULE
ZINC38959983
   60    64     0     0     0
SMALL
USER_CHARGES

@<TRIPOS>ATOM
      1 C1         -0.4783   -3.9471   -1.8567 C.ar      1 <0>        -0.1556
      2 C2         -0.4652   -2.6030   -2.1816 C.ar      1 <0>        -0.0758
      3 C3          0.5918   -1.8061   -1.7880 C.ar      1 <0>        -0.1719
      4 C4          1.6427   -2.3562   -1.0650 C.ar      1 <0>         0.2252
      5 C5          1.6264   -3.7067   -0.7403 C.ar      1 <0>        -0.1743
      6 C6          0.5663   -4.4979   -1.1371 C.ar      1 <0>        -0.0722
      7 N1          2.7135   -1.5532   -0.6658 N.pl3     1 <0>        -0.6049
      8 C7          3.8434   -1.9521    0.1917 C.3       1 <0>         0.3390
      9 H1          4.3970   -2.7669   -0.2750 H         1 <0>         0.1259
     10 N2          4.7122   -0.7608    0.3271 N.3       1 <0>        -0.4695
     11 N3          4.4016    0.0549   -0.8575 N.3       1 <0>        -0.4446
     12 C8          2.9399   -0.1385   -1.0251 C.3       1 <0>         0.2879
     13 H2          2.6467    0.0439   -2.0590 H         1 <0>         0.1305
     14 S1          2.0268    0.9553    0.0975 S.3       1 <0>        -0.2540
     15 C9          1.7646    2.4634   -0.8760 C.3       1 <0>        -0.1178
     16 C10         0.8993    3.4201   -0.0969 C.2       1 <0>         0.5483
     17 O1          0.4990    3.1148    1.0062 O.2       1 <0>        -0.4481
     18 N4          0.5704    4.6151   -0.6263 N.am      1 <0>        -0.5558
     19 N5         -0.2340    5.5046    0.0980 N.2       1 <0>        -0.1289
     20 C11        -0.5536    6.6654   -0.4162 C.2       1 <0>         0.0387
     21 C12        -1.3587    7.5557    0.3087 C.2       1 <0>         0.1263
     22 C13        -1.7917    8.8172   -0.0925 C.ar      1 <0>        -0.1441
     23 C14        -1.5831    9.5679   -1.2708 C.ar      1 <0>        -0.0265
     24 C15        -2.1396   10.7993   -1.3913 C.ar      1 <0>        -0.1385
     25 C16        -2.9215   11.3530   -0.3733 C.ar      1 <0>         0.0416
     26 C17        -3.1636   10.6909    0.7833 C.ar      1 <0>        -0.1993
     27 C18        -2.6150    9.3960    0.9837 C.ar      1 <0>         0.3146
     28 N6         -2.6997    8.5615    1.9980 N.pl3     1 <0>        -0.5876
     29 C19        -1.9442    7.3440    1.6875 C.3       1 <0>         0.0706
     30 C20         3.3382   -2.3805    1.5453 C.ar      1 <0>        -0.1238
     31 C21         2.7509   -1.4555    2.3885 C.ar      1 <0>        -0.0517
     32 C22         2.2876   -1.8484    3.6300 C.ar      1 <0>        -0.1088
     33 C23         2.4109   -3.1665    4.0284 C.ar      1 <0>        -0.0416
     34 C24         2.9972   -4.0914    3.1851 C.ar      1 <0>        -0.0425
     35 C25         3.4568   -3.6993    1.9416 C.ar      1 <0>        -0.0292
     36 N7          3.1297   -5.5025    3.6120 N.pl3     1 <0>         0.0304
     37 O2          2.7251   -5.8461    4.6982 O.2       1 <0>        -0.1494
     38 O3          3.6425   -6.3116    2.8743 O.3       1 <0>        -0.1493
     39 H3         -1.3083   -4.5671   -2.1618 H         1 <0>         0.1252
     40 H4         -1.2824   -2.1761   -2.7440 H         1 <0>         0.1251
     41 H5          0.6015   -0.7566   -2.0424 H         1 <0>         0.1148
     42 H6          2.4420   -4.1376   -0.1786 H         1 <0>         0.1202
     43 H7          0.5530   -5.5480   -0.8850 H         1 <0>         0.1284
     44 H8          4.5059   -0.2575    1.1769 H         1 <0>         0.3330
     45 H9          4.6237    1.0259   -0.6963 H         1 <0>         0.3630
     46 H10         2.7261    2.9319   -1.0862 H         1 <0>         0.1267
     47 H11         1.2715    2.2090   -1.8142 H         1 <0>         0.1272
     48 H12         0.8906    4.8594   -1.5087 H         1 <0>         0.4072
     49 H13        -0.1970    6.9374   -1.3987 H         1 <0>         0.1604
     50 H14        -0.9829    9.1633   -2.0723 H         1 <0>         0.1566
     51 H15        -1.9743   11.3658   -2.2958 H         1 <0>         0.1569
     52 H16        -3.3443   12.3370   -0.5128 H         1 <0>         0.1616
     53 H17        -3.7723   11.1459    1.5507 H         1 <0>         0.1614
     54 H18        -2.6070    6.4787    1.6850 H         1 <0>         0.1782
     55 H19        -1.1462    7.2041    2.4166 H         1 <0>         0.1774
     56 H20         2.6546   -0.4258    2.0772 H         1 <0>         0.1387
     57 H21         1.8295   -1.1257    4.2889 H         1 <0>         0.1516
     58 H22         2.0495   -3.4734    4.9988 H         1 <0>         0.1593
     59 H23         3.9115   -4.4228    1.2811 H         1 <0>         0.1584
     60 H24        -3.1884    8.7246    2.8199 H         1 <0>         0.4554
@<TRIPOS>BOND
     1    1    6 ar
     2    1    2 ar
     3    1   39 1
     4    2    3 ar
     5    2   40 1
     6    3    4 ar
     7    3   41 1
     8    4    5 ar
     9    4    7 1
    10    5    6 ar
    11    5   42 1
    12    6   43 1
    13    7   12 1
    14    7    8 1
    15    8    9 1
    16    8   10 1
    17    8   30 1
    18   10   11 1
    19   10   44 1
    20   11   12 1
    21   11   45 1
    22   12   13 1
    23   12   14 1
    24   14   15 1
    25   15   16 1
    26   15   46 1
    27   15   47 1
    28   16   17 2
    29   16   18 am
    30   18   19 1
    31   18   48 1
    32   19   20 2
    33   20   21 1
    34   20   49 1
    35   21   29 1
    36   21   22 2
    37   22   27 ar
    38   22   23 ar
    39   23   24 ar
    40   23   50 1
    41   24   25 ar
    42   24   51 1
    43   25   26 ar
    44   25   52 1
    45   26   27 ar
    46   26   53 1
    47   27   28 2
    48   28   29 1
    49   28   60 1
    50   29   54 1
    51   29   55 1
    52   30   35 ar
    53   30   31 ar
    54   31   32 ar
    55   31   56 1
    56   32   33 ar
    57   32   57 1
    58   33   34 ar
    59   33   58 1
    60   34   35 ar
    61   34   36 1
    62   35   59 1
    63   36   37 2
    64   36   38 1
@<TRIPOS>MOLECULE
ZINC13634042
   54    57     0     0     0
SMALL
USER_CHARGES

@<TRIPOS>ATOM
      1 C1          0.3252    0.3136   -3.1915 C.3       1 <0>        -0.1493
      2 C2          0.2771   -0.8521   -2.2018 C.3       1 <0>        -0.0664
      3 C3          0.6612   -0.3533   -0.8073 C.3       1 <0>        -0.1482
      4 C4         -1.1173   -1.4225   -2.1648 C.ar      1 <0>        -0.0473
      5 C5         -2.1814   -0.6199   -1.7963 C.ar      1 <0>        -0.0826
      6 C6         -3.4606   -1.1394   -1.7619 C.ar      1 <0>        -0.1535
      7 C7         -3.6776   -2.4694   -2.0978 C.ar      1 <0>         0.0718
      8 C8         -2.6067   -3.2728   -2.4674 C.ar      1 <0>        -0.0924
      9 C9         -1.3307   -2.7457   -2.5049 C.ar      1 <0>        -0.0863
     10 N1         -4.9718   -2.9988   -2.0634 N.pl3     1 <0>        -0.5883
     11 C10        -5.7658   -2.8040   -0.9563 C.cat     1 <0>         0.7436
     12 N2         -5.3562   -2.0350    0.0116 N.pl3     1 <0>        -0.7584
     13 N3         -6.9961   -3.4234   -0.8719 N.pl3     1 <0>        -0.6245
     14 C11        -7.4833   -4.1321   -1.9433 C.2       1 <0>         0.6316
     15 N4         -8.7602   -4.5992   -1.9103 N.am      1 <0>        -0.6237
     16 C12        -9.2464   -5.2965   -2.9592 C.2       1 <0>         0.5408
     17 O1        -10.3896   -5.7225   -2.9466 O.2       1 <0>        -0.4791
     18 C13        -8.4095   -5.5219   -4.0671 C.2       1 <0>        -0.2307
     19 C14        -7.1376   -5.0289   -4.0432 C.2       1 <0>         0.2030
     20 N5         -6.7073   -4.3426   -2.9865 N.2       1 <0>        -0.5747
     21 C15        -6.2203   -5.2562   -5.2171 C.3       1 <0>        -0.0806
     22 S1         -6.0629   -3.7195   -6.1679 S.3       1 <0>         0.0590
     23 C16        -4.9746   -4.1440   -7.4870 C.2       1 <0>         0.0978
     24 N6         -4.4039   -5.2995   -7.7456 N.2       1 <0>        -0.4935
     25 C17        -3.5840   -5.4825   -8.8036 C.ar      1 <0>         0.0735
     26 C18        -2.9110   -6.6639   -9.1919 C.ar      1 <0>        -0.0565
     27 C19        -2.1084   -6.6797  -10.3028 C.ar      1 <0>        -0.1077
     28 C20        -1.9270   -5.5464  -11.0820 C.ar      1 <0>        -0.0821
     29 C21        -2.5703   -4.3732  -10.7312 C.ar      1 <0>        -0.0682
     30 C22        -3.3761   -4.3483   -9.6209 C.ar      1 <0>        -0.1398
     31 S2         -4.3721   -3.1151   -8.8184 S.3       1 <0>         0.0620
     32 H1          1.3338    0.7262   -3.2183 H         1 <0>         0.0677
     33 H2          0.0515   -0.0417   -4.1850 H         1 <0>         0.0592
     34 H3         -0.3754    1.0869   -2.8765 H         1 <0>         0.0589
     35 H4          0.9777   -1.6254   -2.5168 H         1 <0>         0.0870
     36 H5         -0.0394    0.4200   -0.4922 H         1 <0>         0.0585
     37 H6          0.6270   -1.1838   -0.1021 H         1 <0>         0.0582
     38 H7          1.6698    0.0592   -0.8340 H         1 <0>         0.0678
     39 H8         -2.0120    0.4142   -1.5349 H         1 <0>         0.1429
     40 H9         -4.2912   -0.5122   -1.4737 H         1 <0>         0.1344
     41 H10        -2.7721   -4.3076   -2.7288 H         1 <0>         0.1390
     42 H11        -0.4981   -3.3687   -2.7965 H         1 <0>         0.1428
     43 H12        -5.3097   -3.5032   -2.8199 H         1 <0>         0.4524
     44 H13        -5.8863   -1.9479    0.8193 H         1 <0>         0.4422
     45 H14        -8.7676   -6.0763   -4.9221 H         1 <0>         0.1823
     46 H15        -5.2383   -5.5628   -4.8568 H         1 <0>         0.1269
     47 H16        -6.6334   -6.0375   -5.8550 H         1 <0>         0.1344
     48 H17        -3.0304   -7.5635   -8.6065 H         1 <0>         0.1349
     49 H18        -1.6056   -7.5951  -10.5777 H         1 <0>         0.1400
     50 H19        -1.2897   -5.5796  -11.9533 H         1 <0>         0.1450
     51 H20        -2.4389   -3.4823  -11.3274 H         1 <0>         0.1386
     52 H21        -4.5210   -1.5494   -0.0751 H         1 <0>         0.4500
     53 H22        -7.5169   -3.3585   -0.0562 H         1 <0>         0.4576
     54 H23        -9.3196   -4.4321   -1.1356 H         1 <0>         0.4297
@<TRIPOS>BOND
     1    1    2 1
     2    1   32 1
     3    1   33 1
     4    1   34 1
     5    2    3 1
     6    2    4 1
     7    2   35 1
     8    3   36 1
     9    3   37 1
    10    3   38 1
    11    4    9 ar
    12    4    5 ar
    13    5    6 ar
    14    5   39 1
    15    6    7 ar
    16    6   40 1
    17    7    8 ar
    18    7   10 1
    19    8    9 ar
    20    8   41 1
    21    9   42 1
    22   10   11 1
    23   10   43 1
    24   11   12 2
    25   11   13 1
    26   12   44 1
    27   12   52 1
    28   13   14 1
    29   13   53 1
    30   14   20 2
    31   14   15 1
    32   15   16 am
    33   15   54 1
    34   16   17 2
    35   16   18 1
    36   18   19 2
    37   18   45 1
    38   19   20 1
    39   19   21 1
    40   21   22 1
    41   21   46 1
    42   21   47 1
    43   22   23 1
    44   23   31 1
    45   23   24 2
    46   24   25 1
    47   25   30 ar
    48   25   26 ar
    49   26   27 ar
    50   26   48 1
    51   27   28 ar
    52   27   49 1
    53   28   29 ar
    54   28   50 1
    55   29   30 ar
    56   29   51 1
    57   30   31 1
@<TRIPOS>MOLECULE
ZINC63491367
   55    58     0     0     0
SMALL
USER_CHARGES

@<TRIPOS>ATOM
      1 C1         -0.0187    1.5258    0.0104 C.3       1 <0>        -0.1461
      2 C2          0.0021   -0.0041    0.0020 C.3       1 <0>        -0.0900
      3 C3          0.7421   -0.5109    1.2415 C.3       1 <0>        -0.1630
      4 C4         -1.4333   -0.5336    0.0129 C.3       1 <0>         0.1489
      5 H1         -1.9605   -0.1726   -0.8702 H         1 <0>         0.1349
      6 C5         -1.4129   -2.0405    0.0046 C.2       1 <0>         0.5204
      7 O1         -1.9211   -2.6589    0.9158 O.2       1 <0>        -0.5238
      8 N1         -0.8299   -2.7009   -1.0154 N.am      1 <0>        -0.7318
      9 C6         -0.8100   -4.1658   -1.0235 C.3       1 <0>         0.1268
     10 C7         -0.0939   -4.6592   -2.2823 C.3       1 <0>        -0.1086
     11 C8         -0.0734   -6.1660   -2.2906 C.2       1 <0>         0.0814
     12 C9         -0.9504   -6.9877   -2.9110 C.ar      1 <0>        -0.1625
     13 C10        -2.1405   -6.7340   -3.7317 C.ar      1 <0>        -0.0066
     14 C11        -2.8329   -7.7862   -4.2267 C.ar      1 <0>        -0.0751
     15 C12        -2.4422   -9.1099   -3.9749 C.ar      1 <0>         0.0539
     16 C13        -1.3606   -9.4214   -3.2302 C.ar      1 <0>        -0.1888
     17 C14        -0.5593   -8.3934   -2.6607 C.ar      1 <0>         0.3297
     18 N2          0.5176   -8.4389   -1.9145 N.pl3     1 <0>        -0.5775
     19 C15         0.9356   -7.0654   -1.6122 C.3       1 <0>         0.0595
     20 Cl1        -4.2411   -7.4904   -5.1978 Cl        1 <0>        -0.0126
     21 N3         -2.1190   -0.0612    1.2182 N.am      1 <0>        -0.4559
     22 C16        -3.2323    0.6966    1.0886 C.2       1 <0>         0.5638
     23 O2         -3.7249    0.9117   -0.0022 O.2       1 <0>        -0.5188
     24 C17        -3.8273    1.2525    2.3197 C.ar      1 <0>        -0.2092
     25 C18        -5.0877    1.8338    2.3544 C.ar      1 <0>        -0.0170
     26 C19        -5.5686    2.3329    3.5490 C.ar      1 <0>        -0.1633
     27 C20        -4.8043    2.2563    4.7029 C.ar      1 <0>        -0.0470
     28 C21        -3.5483    1.6784    4.6808 C.ar      1 <0>        -0.1717
     29 C22        -3.0530    1.1729    3.4940 C.ar      1 <0>         0.2002
     30 N4         -1.8054    0.5698    3.3890 N.pl3     1 <0>        -0.5932
     31 N5         -1.6228   -0.4006    2.4390 N.3       1 <0>        -0.1926
     32 H2          1.0039    1.9031    0.0027 H         1 <0>         0.0638
     33 H3         -0.5459    1.8868   -0.8726 H         1 <0>         0.0566
     34 H4         -0.5289    1.8773    0.9072 H         1 <0>         0.0594
     35 H5          0.5123   -0.3556   -0.8948 H         1 <0>         0.0810
     36 H6          0.2319   -0.1594    2.1383 H         1 <0>         0.1009
     37 H7          0.7568   -1.6008    1.2356 H         1 <0>         0.0449
     38 H8          1.7647   -0.1336    1.2338 H         1 <0>         0.0521
     39 H9         -0.4234   -2.2064   -1.7442 H         1 <0>         0.4081
     40 H10        -0.2828   -4.5268   -0.1404 H         1 <0>         0.0804
     41 H11        -1.8326   -4.5431   -1.0157 H         1 <0>         0.0795
     42 H12        -0.6210   -4.2981   -3.1653 H         1 <0>         0.1185
     43 H13         0.9287   -4.2819   -2.2900 H         1 <0>         0.1232
     44 H14        -2.4592   -5.7228   -3.9372 H         1 <0>         0.1707
     45 H15        -3.0312   -9.9124   -4.3938 H         1 <0>         0.1710
     46 H16        -1.1022  -10.4570   -3.0655 H         1 <0>         0.1713
     47 H17         1.9331   -6.8778   -2.0096 H         1 <0>         0.1802
     48 H18         0.9224   -6.8996   -0.5350 H         1 <0>         0.1790
     49 H19        -5.6856    1.8947    1.4571 H         1 <0>         0.1375
     50 H20        -6.5480    2.7868    3.5844 H         1 <0>         0.1336
     51 H21        -5.1938    2.6526    5.6289 H         1 <0>         0.1342
     52 H22        -2.9590    1.6226    5.5841 H         1 <0>         0.1356
     53 H23        -1.0800    0.8294    3.9783 H         1 <0>         0.4399
     54 H24        -1.9937   -1.2872    2.7464 H         1 <0>         0.3561
     55 H25         0.9655   -9.2457   -1.6156 H         1 <0>         0.4585
@<TRIPOS>BOND
     1    1    2 1
     2    1   32 1
     3    1   33 1
     4    1   34 1
     5    2    3 1
     6    2    4 1
     7    2   35 1
     8    3   36 1
     9    3   37 1
    10    3   38 1
    11    4    5 1
    12    4    6 1
    13    4   21 1
    14    6    7 2
    15    6    8 am
    16    8    9 1
    17    8   39 1
    18    9   10 1
    19    9   40 1
    20    9   41 1
    21   10   11 1
    22   10   42 1
    23   10   43 1
    24   11   19 1
    25   11   12 2
    26   12   17 ar
    27   12   13 ar
    28   13   14 ar
    29   13   44 1
    30   14   15 ar
    31   14   20 1
    32   15   16 ar
    33   15   45 1
    34   16   17 ar
    35   16   46 1
    36   17   18 2
    37   18   19 1
    38   18   55 1
    39   19   47 1
    40   19   48 1
    41   21   31 1
    42   21   22 am
    43   22   23 2
    44   22   24 1
    45   24   29 ar
    46   24   25 ar
    47   25   26 ar
    48   25   49 1
    49   26   27 ar
    50   26   50 1
    51   27   28 ar
    52   27   51 1
    53   28   29 ar
    54   28   52 1
    55   29   30 1
    56   30   31 1
    57   30   53 1
    58   31   54 1
@<TRIPOS>MOLECULE
ZINC06149302
   76    80     0     0     0
SMALL
USER_CHARGES
3-[(benzyl-phenethyl-amino)-[1-(1,1-dimethylpropyl)tetrazol-5-yl]-methyl]-8-methyl-1H-quinolin-2-one
@<TRIPOS>ATOM
      1 C1         -2.6160   -7.2677    5.5030 C.3       1 <0>        -0.1584
      2 C2         -2.4729   -5.8728    6.1153 C.3       1 <0>        -0.1209
      3 C3         -1.1946   -5.2149    5.5919 C.3       1 <0>         0.1528
      4 C4         -1.2683   -5.0979    4.0681 C.3       1 <0>        -0.1747
      5 C5          0.0142   -6.0687    5.9800 C.3       1 <0>        -0.1802
      6 N1         -1.0576   -3.8793    6.1781 N.pl3     1 <0>        -0.2625
      7 C6         -0.0449   -3.0166    5.9737 C.2       1 <0>         0.1227
      8 N2         -0.3159   -1.9447    6.6777 N.2       1 <0>        -0.2779
      9 N3         -1.4340   -2.1410    7.2870 N.2       1 <0>        -0.0516
     10 N4         -1.8833   -3.3103    6.9899 N.2       1 <0>        -0.0437
     11 C7          1.1629   -3.2375    5.0998 C.3       1 <0>         0.2037
     12 H1          1.1161   -4.2340    4.6605 H         1 <0>         0.1617
     13 C8          1.1843   -2.2051    4.0022 C.2       1 <0>        -0.2695
     14 C9          0.1214   -1.3813    3.8289 C.2       1 <0>         0.0775
     15 C10         0.1737   -0.3891    2.7534 C.ar      1 <0>        -0.1407
     16 C11        -0.8921    0.4878    2.5255 C.ar      1 <0>        -0.0507
     17 C12        -0.8124    1.4018    1.5135 C.ar      1 <0>        -0.1343
     18 C13         0.3196    1.4724    0.7128 C.ar      1 <0>        -0.0428
     19 C14         1.3791    0.6148    0.9155 C.ar      1 <0>        -0.1238
     20 C15         1.3204   -0.3247    1.9398 C.ar      1 <0>         0.2036
     21 N5          2.3677   -1.1917    2.1680 N.am      1 <0>        -0.6091
     22 H2          3.1813   -1.1451    1.5884 H         1 <0>         0.4325
     23 C16         2.3110   -2.0990    3.1587 C.2       1 <0>         0.5673
     24 O1          3.2558   -2.8492    3.3321 O.2       1 <0>        -0.5593
     25 C17         2.5991    0.6985    0.0349 C.3       1 <0>        -0.1220
     26 C18         2.5557   -4.2880    6.7789 C.3       1 <0>        -0.0137
     27 C19         3.9233   -4.2189    7.4614 C.3       1 <0>        -0.0979
     28 C20         4.1572   -5.4836    8.2467 C.ar      1 <0>        -0.1056
     29 C21         3.7644   -5.5582    9.5700 C.ar      1 <0>        -0.1093
     30 C22         3.9742   -6.7202   10.2888 C.ar      1 <0>        -0.1136
     31 C23         4.5868   -7.8037    9.6876 C.ar      1 <0>        -0.1043
     32 C24         4.9848   -7.7272    8.3660 C.ar      1 <0>        -0.1134
     33 C25         4.7698   -6.5672    7.6455 C.ar      1 <0>        -0.1095
     34 C26         2.3710   -1.8752    6.6959 C.3       1 <0>         0.0082
     35 C27         2.7128   -0.7113    5.8017 C.ar      1 <0>        -0.1460
     36 C28         4.0239   -0.4933    5.4218 C.ar      1 <0>        -0.0958
     37 C29         4.3367    0.5713    4.5973 C.ar      1 <0>        -0.1162
     38 C30         3.3399    1.4242    4.1616 C.ar      1 <0>        -0.0876
     39 C31         2.0296    1.2095    4.5461 C.ar      1 <0>        -0.1161
     40 C32         1.7160    0.1416    5.3660 C.ar      1 <0>        -0.0801
     41 H3         -3.5267   -7.7364    5.8759 H         1 <0>         0.0761
     42 H4         -2.6685   -7.1843    4.4175 H         1 <0>         0.0661
     43 H5         -1.7548   -7.8760    5.7795 H         1 <0>         0.0651
     44 H6         -2.4204   -5.9562    7.2008 H         1 <0>         0.0864
     45 H7         -3.3341   -5.2646    5.8388 H         1 <0>         0.0877
     46 H8         -0.3576   -4.6291    3.6953 H         1 <0>         0.0643
     47 H9         -1.3703   -6.0916    3.6320 H         1 <0>         0.1109
     48 H10        -2.1295   -4.4896    3.7917 H         1 <0>         0.0823
     49 H11         0.0278   -6.2093    7.0608 H         1 <0>         0.0857
     50 H12        -0.0534   -7.0391    5.4882 H         1 <0>         0.1143
     51 H13         0.9295   -5.5660    5.6675 H         1 <0>         0.0563
     52 H14        -0.7444   -1.4551    4.4701 H         1 <0>         0.1438
     53 H15        -1.7743    0.4421    3.1468 H         1 <0>         0.1394
     54 H16        -1.6354    2.0788    1.3377 H         1 <0>         0.1409
     55 H17         0.3686    2.2042   -0.0800 H         1 <0>         0.1423
     56 H18         2.4730    0.0396   -0.8243 H         1 <0>         0.0818
     57 H19         2.7287    1.7244   -0.3099 H         1 <0>         0.0854
     58 H20         3.4782    0.3919    0.6018 H         1 <0>         0.0639
     59 H21         1.7718   -4.2980    7.5361 H         1 <0>         0.1253
     60 H22         2.4940   -5.1967    6.1800 H         1 <0>         0.1339
     61 H23         4.7014   -4.1112    6.7058 H         1 <0>         0.0990
     62 H24         3.9502   -3.3626    8.1352 H         1 <0>         0.0984
     63 H25         3.2898   -4.7101   10.0410 H         1 <0>         0.1233
     64 H26         3.6629   -6.7801   11.3213 H         1 <0>         0.1290
     65 H27         4.7541   -8.7103   10.2503 H         1 <0>         0.1293
     66 H28         5.4634   -8.5738    7.8963 H         1 <0>         0.1296
     67 H29         5.0807   -6.5074    6.6130 H         1 <0>         0.1253
     68 H30         1.3799   -1.7255    7.1243 H         1 <0>         0.1679
     69 H31         3.1064   -1.9459    7.4973 H         1 <0>         0.1377
     70 H32         4.8033   -1.1571    5.7659 H         1 <0>         0.1254
     71 H33         5.3604    0.7388    4.2967 H         1 <0>         0.1316
     72 H34         3.5848    2.2581    3.5205 H         1 <0>         0.1295
     73 H35         1.2508    1.8758    4.2056 H         1 <0>         0.1288
     74 H36         0.6923   -0.0262    5.6664 H         1 <0>         0.1369
     75 N6          2.4047   -3.1152    5.8921 N.4       1 <0>        -0.3864
     76 H37         3.2064   -3.0759    5.2518 H         1 <0>         0.4440
@<TRIPOS>BOND
     1    1    2 1
     2    1   41 1
     3    1   42 1
     4    1   43 1
     5    2    3 1
     6    2   44 1
     7    2   45 1
     8    3    4 1
     9    3    5 1
    10    3    6 1
    11    4   46 1
    12    4   47 1
    13    4   48 1
    14    5   49 1
    15    5   50 1
    16    5   51 1
    17    6   10 1
    18    6    7 1
    19    7    8 2
    20    7   11 1
    21    8    9 1
    22    9   10 2
    23   11   12 1
    24   11   13 1
    25   11   75 1
    26   13   23 1
    27   13   14 2
    28   14   15 1
    29   14   52 1
    30   15   20 ar
    31   15   16 ar
    32   16   17 ar
    33   16   53 1
    34   17   18 ar
    35   17   54 1
    36   18   19 ar
    37   18   55 1
    38   19   20 ar
    39   19   25 1
    40   20   21 1
    41   21   22 1
    42   21   23 am
    43   23   24 2
    44   25   56 1
    45   25   57 1
    46   25   58 1
    47   26   27 1
    48   26   59 1
    49   26   60 1
    50   26   75 1
    51   27   28 1
    52   27   61 1
    53   27   62 1
    54   28   33 ar
    55   28   29 ar
    56   29   30 ar
    57   29   63 1
    58   30   31 ar
    59   30   64 1
    60   31   32 ar
    61   31   65 1
    62   32   33 ar
    63   32   66 1
    64   33   67 1
    65   34   35 1
    66   34   68 1
    67   34   69 1
    68   34   75 1
    69   35   40 ar
    70   35   36 ar
    71   36   37 ar
    72   36   70 1
    73   37   38 ar
    74   37   71 1
    75   38   39 ar
    76   38   72 1
    77   39   40 ar
    78   39   73 1
    79   40   74 1
    80   75   76 1
@<TRIPOS>MOLECULE
ZINC13064932
   73    77     0     0     0
SMALL
USER_CHARGES
3-[[[(1R)-1-(1-benzyltetrazol-5-yl)propyl]-(p-tolylmethyl)amino]methyl]-5,7-dimethyl-1H-quinolin-2-one
@<TRIPOS>ATOM
      1 C1          1.6526   -0.0516   -1.1666 C.3       1 <0>        -0.1816
      2 C2          0.8193    0.0801    0.1098 C.3       1 <0>        -0.1640
      3 C3         -0.3634    1.0160   -0.1475 C.3       1 <0>         0.1307
      4 H1          0.0076    2.0088   -0.4022 H         1 <0>         0.1502
      5 C4         -1.2157    1.1010    1.0924 C.2       1 <0>         0.1799
      6 N1         -2.4582    0.7027    1.2168 N.2       1 <0>        -0.3202
      7 N2         -2.8340    0.9431    2.4255 N.2       1 <0>        -0.0525
      8 N3         -1.8660    1.4917    3.0732 N.2       1 <0>        -0.0602
      9 N4         -0.8506    1.6061    2.2855 N.pl3     1 <0>        -0.2646
     10 C5          0.4543    2.1785    2.6255 C.3       1 <0>         0.1456
     11 C6          0.4439    3.6580    2.3390 C.ar      1 <0>        -0.1375
     12 C7          0.8282    4.1240    1.0956 C.ar      1 <0>        -0.1078
     13 C8          0.8140    5.4807    0.8313 C.ar      1 <0>        -0.1181
     14 C9          0.4256    6.3723    1.8137 C.ar      1 <0>        -0.0936
     15 C10         0.0462    5.9067    3.0588 C.ar      1 <0>        -0.1122
     16 C11         0.0554    4.5495    3.3215 C.ar      1 <0>        -0.0827
     17 C12        -0.6254    0.9312   -2.5531 C.3       1 <0>         0.0318
     18 C13        -1.6997    0.8387   -3.6059 C.ar      1 <0>        -0.1678
     19 C14        -1.7113   -0.2239   -4.4900 C.ar      1 <0>        -0.0857
     20 C15        -2.6992   -0.3110   -5.4530 C.ar      1 <0>        -0.1165
     21 C16        -3.6700    0.6695   -5.5379 C.ar      1 <0>        -0.0434
     22 C17        -3.6556    1.7345   -4.6568 C.ar      1 <0>        -0.1143
     23 C18        -2.6702    1.8194   -3.6911 C.ar      1 <0>        -0.0922
     24 C19        -4.7443    0.5770   -6.5907 C.3       1 <0>        -0.1310
     25 C20        -1.2646   -0.9708   -1.1978 C.3       1 <0>         0.0478
     26 C21        -2.3995   -1.3612   -0.2865 C.2       1 <0>        -0.2535
     27 C22        -3.6229   -1.6276   -0.8072 C.2       1 <0>         0.0574
     28 C23        -4.7043   -2.0042    0.1051 C.ar      1 <0>        -0.1546
     29 C24        -5.9873   -2.2911   -0.3730 C.ar      1 <0>        -0.0062
     30 C25        -6.9745   -2.6398    0.5043 C.ar      1 <0>        -0.1524
     31 C26        -6.7160   -2.7121    1.8665 C.ar      1 <0>         0.0007
     32 C27        -5.4598   -2.4334    2.3598 C.ar      1 <0>        -0.1763
     33 C28        -4.4384   -2.0764    1.4854 C.ar      1 <0>         0.2224
     34 N5         -3.1721   -1.7937    1.9512 N.am      1 <0>        -0.6096
     35 H2         -2.9905   -1.8440    2.9027 H         1 <0>         0.4192
     36 C29        -2.1839   -1.4539    1.1052 C.2       1 <0>         0.5847
     37 O1         -1.0752   -1.2150    1.5518 O.2       1 <0>        -0.5837
     38 C30        -7.8208   -3.0990    2.8156 C.3       1 <0>        -0.1293
     39 C31        -6.2791   -2.2152   -1.8495 C.3       1 <0>        -0.1256
     40 H3          1.0987   -0.6330   -1.9037 H         1 <0>         0.0641
     41 H4          1.8612    0.9400   -1.5683 H         1 <0>         0.0723
     42 H5          2.5915   -0.5556   -0.9373 H         1 <0>         0.0917
     43 H6          1.4392    0.4888    0.9078 H         1 <0>         0.1078
     44 H7          0.4484   -0.9016    0.4044 H         1 <0>         0.1384
     45 H8          0.6583    2.0148    3.6837 H         1 <0>         0.1316
     46 H9          1.2288    1.6981    2.0276 H         1 <0>         0.1219
     47 H10         1.1360    3.4277    0.3295 H         1 <0>         0.1173
     48 H11         1.1107    5.8445   -0.1414 H         1 <0>         0.1315
     49 H12         0.4187    7.4326    1.6086 H         1 <0>         0.1328
     50 H13        -0.2569    6.6032    3.8264 H         1 <0>         0.1341
     51 H14        -0.2406    4.1858    4.2943 H         1 <0>         0.1320
     52 H15        -0.2829    1.9629   -2.4731 H         1 <0>         0.1363
     53 H16         0.2118    0.2909   -2.8310 H         1 <0>         0.1513
     54 H17        -0.9505   -0.9877   -4.4263 H         1 <0>         0.1333
     55 H18        -2.7107   -1.1433   -6.1411 H         1 <0>         0.1364
     56 H19        -4.4141    2.5005   -4.7231 H         1 <0>         0.1350
     57 H20        -2.6587    2.6517   -3.0029 H         1 <0>         0.1273
     58 H21        -4.3776    1.0069   -7.5228 H         1 <0>         0.0830
     59 H22        -5.0065   -0.4688   -6.7513 H         1 <0>         0.0767
     60 H23        -5.6259    1.1259   -6.2594 H         1 <0>         0.0747
     61 H24        -1.4486   -1.3655   -2.1970 H         1 <0>         0.1388
     62 H25        -0.3312   -1.3803   -0.8116 H         1 <0>         0.1574
     63 H26        -3.7958   -1.5631   -1.8713 H         1 <0>         0.1481
     64 H27        -7.9650   -2.8609    0.1350 H         1 <0>         0.1357
     65 H28        -5.2689   -2.4924    3.4212 H         1 <0>         0.1373
     66 H29        -7.8281   -4.1815    2.9427 H         1 <0>         0.0842
     67 H30        -7.6546   -2.6209    3.7809 H         1 <0>         0.0757
     68 H31        -8.7789   -2.7744    2.4095 H         1 <0>         0.0777
     69 H32        -6.0903   -3.1861   -2.3075 H         1 <0>         0.0834
     70 H33        -7.3229   -1.9394   -1.9999 H         1 <0>         0.0807
     71 H34        -5.6353   -1.4653   -2.3091 H         1 <0>         0.0680
     72 N6         -1.1946    0.5044   -1.2575 N.4       1 <0>        -0.3832
     73 H35        -2.1431    0.8872   -1.1677 H         1 <0>         0.4333
@<TRIPOS>BOND
     1    1    2 1
     2    1   40 1
     3    1   41 1
     4    1   42 1
     5    2    3 1
     6    2   43 1
     7    2   44 1
     8    3    4 1
     9    3    5 1
    10    3   72 1
    11    5    9 1
    12    5    6 2
    13    6    7 1
    14    7    8 2
    15    8    9 1
    16    9   10 1
    17   10   11 1
    18   10   45 1
    19   10   46 1
    20   11   16 ar
    21   11   12 ar
    22   12   13 ar
    23   12   47 1
    24   13   14 ar
    25   13   48 1
    26   14   15 ar
    27   14   49 1
    28   15   16 ar
    29   15   50 1
    30   16   51 1
    31   17   18 1
    32   17   52 1
    33   17   53 1
    34   17   72 1
    35   18   23 ar
    36   18   19 ar
    37   19   20 ar
    38   19   54 1
    39   20   21 ar
    40   20   55 1
    41   21   22 ar
    42   21   24 1
    43   22   23 ar
    44   22   56 1
    45   23   57 1
    46   24   58 1
    47   24   59 1
    48   24   60 1
    49   25   26 1
    50   25   61 1
    51   25   62 1
    52   25   72 1
    53   26   36 1
    54   26   27 2
    55   27   28 1
    56   27   63 1
    57   28   33 ar
    58   28   29 ar
    59   29   30 ar
    60   29   39 1
    61   30   31 ar
    62   30   64 1
    63   31   32 ar
    64   31   38 1
    65   32   33 ar
    66   32   65 1
    67   33   34 1
    68   34   35 1
    69   34   36 am
    70   36   37 2
    71   38   66 1
    72   38   67 1
    73   38   68 1
    74   39   69 1
    75   39   70 1
    76   39   71 1
    77   72   73 1
@<TRIPOS>MOLECULE
ZINC13498911
   76    80     0     0     0
SMALL
USER_CHARGES
3-[[[(1S)-1-(1-benzyltetrazol-5-yl)-2-methyl-propyl]-cyclohexyl-amino]methyl]-6,7-dimethyl-1H-quinolin-2-one
@<TRIPOS>ATOM
      1 C1         -4.9666   12.6203    1.8712 C.3       1 <0>        -0.1243
      2 C2         -4.2868   11.3305    1.4901 C.ar      1 <0>        -0.1051
      3 C3         -5.0247   10.1874    1.3652 C.ar      1 <0>        -0.0441
      4 C4         -4.3940    8.9902    1.0120 C.ar      1 <0>        -0.1508
      5 C5         -5.1542    7.7470    0.8695 C.2       1 <0>         0.0597
      6 C6         -4.4888    6.6169    0.5249 C.2       1 <0>        -0.2803
      7 C7         -3.0941    6.6503    0.3110 C.2       1 <0>         0.5502
      8 O1         -2.5157    5.6230    0.0016 O.2       1 <0>        -0.5526
      9 N1         -2.3875    7.7869    0.4395 N.am      1 <0>        -0.6147
     10 H1         -1.4299    7.7745    0.2852 H         1 <0>         0.4267
     11 C8         -3.0052    8.9710    0.7819 C.ar      1 <0>         0.1968
     12 C9         -2.2739   10.1458    0.9206 C.ar      1 <0>        -0.1638
     13 C10        -2.9166   11.3142    1.2696 C.ar      1 <0>        -0.0017
     14 C11        -2.1232   12.5875    1.4127 C.3       1 <0>        -0.1354
     15 C12        -5.2412    5.3203    0.3703 C.3       1 <0>         0.0629
     16 C13        -5.0770    3.3154   -0.9773 C.3       1 <0>         0.0256
     17 C14        -5.9238    2.8396    0.2048 C.3       1 <0>        -0.1413
     18 C15        -5.9838    1.3108    0.2065 C.3       1 <0>        -0.1166
     19 C16        -4.5680    0.7449    0.3329 C.3       1 <0>        -0.1306
     20 C17        -3.7212    1.2207   -0.8492 C.3       1 <0>        -0.1157
     21 C18        -3.6611    2.7495   -0.8509 C.3       1 <0>        -0.1372
     22 C19        -5.9819    5.3469   -1.9347 C.3       1 <0>         0.1274
     23 H2         -6.9540    4.8747   -1.7926 H         1 <0>         0.1514
     24 C20        -5.5011    5.0937   -3.3403 C.2       1 <0>         0.1210
     25 N2         -4.3842    5.5237   -3.8747 N.2       1 <0>        -0.2657
     26 N3         -4.3346    5.0980   -5.0897 N.2       1 <0>        -0.0533
     27 N4         -5.3910    4.4076   -5.3443 N.2       1 <0>        -0.0501
     28 N5         -6.1324    4.3773   -4.2888 N.pl3     1 <0>        -0.2759
     29 C21        -7.4210    3.6943   -4.1500 C.3       1 <0>         0.1450
     30 C22        -8.5315    4.6300   -4.5531 C.ar      1 <0>        -0.1431
     31 C23        -9.0862    5.4865   -3.6207 C.ar      1 <0>        -0.1042
     32 C24       -10.1015    6.3482   -3.9916 C.ar      1 <0>        -0.1186
     33 C25       -10.5692    6.3460   -5.2925 C.ar      1 <0>        -0.0895
     34 C26       -10.0180    5.4858   -6.2236 C.ar      1 <0>        -0.1136
     35 C27        -8.9991    4.6278   -5.8540 C.ar      1 <0>        -0.0796
     36 C28        -6.1083    6.8539   -1.7026 C.3       1 <0>        -0.1149
     37 C29        -4.7960    7.5408   -2.0859 C.3       1 <0>        -0.1646
     38 C30        -7.2448    7.4090   -2.5634 C.3       1 <0>        -0.1602
     39 H3         -5.2879   13.1419    0.9697 H         1 <0>         0.0780
     40 H4         -5.8343   12.4034    2.4943 H         1 <0>         0.0724
     41 H5         -4.2693   13.2486    2.4255 H         1 <0>         0.0779
     42 H6         -6.0905   10.2082    1.5389 H         1 <0>         0.1422
     43 H7         -6.2213    7.7305    1.0347 H         1 <0>         0.1585
     44 H8         -1.2073   10.1435    0.7512 H         1 <0>         0.1422
     45 H9         -2.0896   13.1044    0.4537 H         1 <0>         0.0868
     46 H10        -2.5972   13.2295    2.1552 H         1 <0>         0.0838
     47 H11        -1.1088   12.3494    1.7328 H         1 <0>         0.0769
     48 H12        -4.8850    4.6032    1.1099 H         1 <0>         0.1538
     49 H13        -6.3061    5.4981    0.5200 H         1 <0>         0.1432
     50 H14        -5.5252    2.9684   -1.9083 H         1 <0>         0.1199
     51 H15        -5.4756    3.1866    1.1359 H         1 <0>         0.0967
     52 H16        -6.9325    3.2427    0.1148 H         1 <0>         0.0863
     53 H17        -6.4321    0.9638   -0.7245 H         1 <0>         0.0721
     54 H18        -6.5871    0.9718    1.0487 H         1 <0>         0.0878
     55 H19        -4.6108   -0.3443    0.3341 H         1 <0>         0.0800
     56 H20        -4.1198    1.0919    1.2639 H         1 <0>         0.0724
     57 H21        -4.1694    0.8737   -1.7803 H         1 <0>         0.0693
     58 H22        -2.7125    0.8176   -0.7592 H         1 <0>         0.0861
     59 H23        -3.0578    3.0885   -1.6930 H         1 <0>         0.0831
     60 H24        -3.2129    3.0966    0.0801 H         1 <0>         0.0988
     61 H25        -7.4367    2.8138   -4.7924 H         1 <0>         0.1361
     62 H26        -7.5610    3.3899   -3.1128 H         1 <0>         0.1161
     63 H27        -8.7239    5.4851   -2.6033 H         1 <0>         0.1213
     64 H28       -10.5324    7.0201   -3.2640 H         1 <0>         0.1319
     65 H29       -11.3654    7.0161   -5.5812 H         1 <0>         0.1330
     66 H30       -10.3836    5.4838   -7.2399 H         1 <0>         0.1343
     67 H31        -8.5687    3.9554   -6.5814 H         1 <0>         0.1321
     68 H32        -6.3235    7.0428   -0.6509 H         1 <0>         0.1126
     69 H33        -4.6735    7.5120   -3.1686 H         1 <0>         0.0855
     70 H34        -4.8169    8.5776   -1.7500 H         1 <0>         0.0793
     71 H35        -3.9625    7.0221   -1.6121 H         1 <0>         0.0526
     72 H36        -7.0779    7.1362   -3.6055 H         1 <0>         0.0630
     73 H37        -8.1935    6.9914   -2.2260 H         1 <0>         0.0773
     74 H38        -7.2728    8.4948   -2.4721 H         1 <0>         0.0855
     75 N6         -4.9930    4.7911   -0.9873 N.4       1 <0>        -0.3914
     76 H39        -4.0512    5.0695   -1.2867 H         1 <0>         0.4436
@<TRIPOS>BOND
     1    1    2 1
     2    1   39 1
     3    1   40 1
     4    1   41 1
     5    2   13 ar
     6    2    3 ar
     7    3    4 ar
     8    3   42 1
     9    4   11 ar
    10    4    5 1
    11    5    6 2
    12    5   43 1
    13    6    7 1
    14    6   15 1
    15    7    8 2
    16    7    9 am
    17    9   10 1
    18    9   11 1
    19   11   12 ar
    20   12   13 ar
    21   12   44 1
    22   13   14 1
    23   14   45 1
    24   14   46 1
    25   14   47 1
    26   15   48 1
    27   15   49 1
    28   15   75 1
    29   16   21 1
    30   16   17 1
    31   16   50 1
    32   16   75 1
    33   17   18 1
    34   17   51 1
    35   17   52 1
    36   18   19 1
    37   18   53 1
    38   18   54 1
    39   19   20 1
    40   19   55 1
    41   19   56 1
    42   20   21 1
    43   20   57 1
    44   20   58 1
    45   21   59 1
    46   21   60 1
    47   22   23 1
    48   22   24 1
    49   22   36 1
    50   22   75 1
    51   24   28 1
    52   24   25 2
    53   25   26 1
    54   26   27 2
    55   27   28 1
    56   28   29 1
    57   29   30 1
    58   29   61 1
    59   29   62 1
    60   30   35 ar
    61   30   31 ar
    62   31   32 ar
    63   31   63 1
    64   32   33 ar
    65   32   64 1
    66   33   34 ar
    67   33   65 1
    68   34   35 ar
    69   34   66 1
    70   35   67 1
    71   36   37 1
    72   36   38 1
    73   36   68 1
    74   37   69 1
    75   37   70 1
    76   37   71 1
    77   38   72 1
    78   38   73 1
    79   38   74 1
    80   75   76 1
@<TRIPOS>MOLECULE
ZINC20576597
   74    78     0     0     0
SMALL
USER_CHARGES
N-[[1-[5-(4-cyclohexylpiperazin-1-yl)-1,3,4-thiadiazol-2-yl]pyrrol-2-yl]methyl]-2-(4-ethoxyphenyl)ethanamine
@<TRIPOS>ATOM
      1 C1          6.1240   12.5866    2.9892 C.3       1 <0>        -0.1565
      2 C2          5.8508   11.0824    2.9269 C.3       1 <0>         0.0539
      3 O1          4.4450   10.8489    3.0332 O.3       1 <0>        -0.3152
      4 C3          4.0299    9.5554    2.9950 C.ar      1 <0>         0.1296
      5 C4          2.6788    9.2561    3.0929 C.ar      1 <0>        -0.1486
      6 C5          2.2593    7.9405    3.0533 C.ar      1 <0>        -0.0724
      7 C6          3.1847    6.9224    2.9162 C.ar      1 <0>        -0.1219
      8 C7          4.5324    7.2177    2.8241 C.ar      1 <0>        -0.0765
      9 C8          4.9565    8.5320    2.8575 C.ar      1 <0>        -0.2087
     10 C9          2.7244    5.4881    2.8733 C.3       1 <0>        -0.0689
     11 C10         2.4463    5.0849    1.4238 C.3       1 <0>         0.0563
     12 N1          1.9975    3.6867    1.3820 N.3       1 <0>        -0.6589
     13 C11         1.7205    3.2638    0.0027 C.3       1 <0>         0.1113
     14 C12         1.2637    1.8277   -0.0002 C.2       1 <0>         0.0435
     15 C13        -0.0170    1.4052    0.0098 C.2       1 <0>        -0.1475
     16 C14         0.0021   -0.0041    0.0020 C.2       1 <0>        -0.1470
     17 C15         1.2938   -0.3916   -0.0124 C.2       1 <0>        -0.0231
     18 N2          2.0753    0.7289   -0.0138 N.pl3     1 <0>        -0.3581
     19 C16         3.4710    0.7479   -0.0267 C.2       1 <0>         0.2955
     20 N3          4.3071    1.7725   -0.0345 N.2       1 <0>        -0.2882
     21 N4          5.5584    1.6146   -0.0411 N.2       1 <0>        -0.2689
     22 C17         6.1125    0.4112   -0.0530 C.2       1 <0>         0.1915
     23 S1          4.6403   -0.6080   -0.0451 S.3       1 <0>         0.0702
     24 N5          7.4516    0.0451   -0.0680 N.pl3     1 <0>        -0.4215
     25 C18         7.7692   -0.8370    1.0637 C.3       1 <0>         0.0217
     26 C19         9.2307   -1.2807    0.9667 C.3       1 <0>        -0.0070
     27 N6         10.1006   -0.0962    0.9655 N.4       1 <0>        -0.4037
     28 C20         9.7830    0.7858   -0.1662 C.3       1 <0>        -0.0028
     29 C21         8.3214    1.2295   -0.0692 C.3       1 <0>         0.0329
     30 C22        11.5175   -0.4836    0.9496 C.3       1 <0>         0.0349
     31 C23        11.8290   -1.2246   -0.3523 C.3       1 <0>        -0.1415
     32 C24        13.3048   -1.6280   -0.3689 C.3       1 <0>        -0.1192
     33 C25        13.5965   -2.5439    0.8215 C.3       1 <0>        -0.1323
     34 C26        13.2850   -1.8029    2.1234 C.3       1 <0>        -0.1186
     35 C27        11.8093   -1.3995    2.1400 C.3       1 <0>        -0.1417
     36 H1          7.2061   12.7664    2.9074 H         1 <0>         0.0803
     37 H2          5.7571   12.9866    3.9460 H         1 <0>         0.0687
     38 H3          5.6051   13.0882    2.1590 H         1 <0>         0.0685
     39 H4          6.2177   10.6824    1.9701 H         1 <0>         0.0614
     40 H5          6.3697   10.5808    3.7571 H         1 <0>         0.0617
     41 H6          1.9556   10.0510    3.2004 H         1 <0>         0.1324
     42 H7          1.2076    7.7070    3.1292 H         1 <0>         0.1310
     43 H8          5.2537    6.4204    2.7218 H         1 <0>         0.1186
     44 H9          6.0088    8.7625    2.7810 H         1 <0>         0.1256
     45 H10         3.5082    4.8389    3.2906 H         1 <0>         0.0651
     46 H11         1.8046    5.3803    3.4668 H         1 <0>         0.0823
     47 H12         1.6625    5.7342    1.0065 H         1 <0>         0.0778
     48 H13         3.3662    5.1927    0.8303 H         1 <0>         0.0348
     49 H14         2.7812    3.0374    1.7994 H         1 <0>         0.3320
     50 H15         0.9317    3.9004   -0.4246 H         1 <0>         0.1005
     51 H16         2.6353    3.3588   -0.6007 H         1 <0>         0.0561
     52 H17        -0.8964    2.0321    0.0175 H         1 <0>         0.1576
     53 H18        -0.8600   -0.6546    0.0062 H         1 <0>         0.1586
     54 H19         1.6489   -1.4114   -0.0216 H         1 <0>         0.1736
     55 H20         7.6117   -0.2940    2.0073 H         1 <0>         0.0830
     56 H21         7.1142   -1.7203    1.0352 H         1 <0>         0.1315
     57 H22         9.4784   -1.9178    1.8285 H         1 <0>         0.1497
     58 H23         9.3807   -1.8479    0.0362 H         1 <0>         0.1431
     59 H24        10.4380    1.6691   -0.1377 H         1 <0>         0.1478
     60 H25         9.9405    0.2428   -1.1098 H         1 <0>         0.1420
     61 H26         8.0726    1.8663   -0.9310 H         1 <0>         0.1393
     62 H27         8.1703    1.7964    0.8613 H         1 <0>         0.0851
     63 H28        12.1098    0.4407    1.0192 H         1 <0>         0.1381
     64 H29        11.2018   -2.1257   -0.4204 H         1 <0>         0.0867
     65 H30        11.6192   -0.5662   -1.2082 H         1 <0>         0.0871
     66 H31        13.5288   -2.1606   -1.3049 H         1 <0>         0.0848
     67 H32        13.9320   -0.7269   -0.3006 H         1 <0>         0.0749
     68 H33        12.9692   -3.4449    0.7532 H         1 <0>         0.0698
     69 H34        14.6575   -2.8341    0.8096 H         1 <0>         0.0802
     70 H35        13.4948   -2.4613    2.9792 H         1 <0>         0.0856
     71 H36        13.9123   -0.9018    2.1916 H         1 <0>         0.0754
     72 H37        11.5853   -0.8668    3.0760 H         1 <0>         0.0879
     73 H38        11.1821   -2.3006    2.0718 H         1 <0>         0.0881
     74 H39         9.9147    0.4628    1.8944 H         1 <0>         0.4408
@<TRIPOS>BOND
     1    1    2 1
     2    1   36 1
     3    1   37 1
     4    1   38 1
     5    2    3 1
     6    2   39 1
     7    2   40 1
     8    3    4 1
     9    4    9 ar
    10    4    5 ar
    11    5    6 ar
    12    5   41 1
    13    6    7 ar
    14    6   42 1
    15    7    8 ar
    16    7   10 1
    17    8    9 ar
    18    8   43 1
    19    9   44 1
    20   10   11 1
    21   10   45 1
    22   10   46 1
    23   11   12 1
    24   11   47 1
    25   11   48 1
    26   12   13 1
    27   12   49 1
    28   13   14 1
    29   13   50 1
    30   13   51 1
    31   14   18 1
    32   14   15 2
    33   15   16 1
    34   15   52 1
    35   16   17 2
    36   16   53 1
    37   17   18 1
    38   17   54 1
    39   18   19 1
    40   19   23 1
    41   19   20 2
    42   20   21 1
    43   21   22 2
    44   22   23 1
    45   22   24 1
    46   24   29 1
    47   24   25 1
    48   25   26 1
    49   25   55 1
    50   25   56 1
    51   26   27 1
    52   26   57 1
    53   26   58 1
    54   27   28 1
    55   27   30 1
    56   27   74 1
    57   28   29 1
    58   28   59 1
    59   28   60 1
    60   29   61 1
    61   29   62 1
    62   30   35 1
    63   30   31 1
    64   30   63 1
    65   31   32 1
    66   31   64 1
    67   31   65 1
    68   32   33 1
    69   32   66 1
    70   32   67 1
    71   33   34 1
    72   33   68 1
    73   33   69 1
    74   34   35 1
    75   34   70 1
    76   34   71 1
    77   35   72 1
    78   35   73 1
@<TRIPOS>MOLECULE
ZINC35926734
   82    85     0     0     0
SMALL
USER_CHARGES

@<TRIPOS>ATOM
      1 C1         -4.1435    2.4341    0.0773 C.3       1 <0>        -0.1230
      2 C2         -3.6747    1.0021    0.1017 C.ar      1 <0>        -0.0339
      3 C3         -3.3266    0.3690   -1.0776 C.ar      1 <0>        -0.1596
      4 C4         -2.8964   -0.9449   -1.0598 C.ar      1 <0>        -0.0665
      5 C5         -2.8125   -1.6295    0.1369 C.ar      1 <0>        -0.1934
      6 C6         -3.1608   -0.9966    1.3232 C.ar      1 <0>         0.2025
      7 C7         -3.5877    0.3253    1.3022 C.ar      1 <0>        -0.1899
      8 N1         -3.0771   -1.6860    2.5350 N.pl3     1 <0>        -0.6443
      9 C8         -3.3269   -1.0019    3.8132 C.3       1 <0>         0.1002
     10 C9         -4.3377   -1.8271    4.6164 C.3       1 <0>        -0.0232
     11 N2         -3.8463   -3.2042    4.7519 N.4       1 <0>        -0.3773
     12 C10        -3.7758   -3.8423    3.4313 C.3       1 <0>        -0.0376
     13 C11        -2.7427   -3.1182    2.5691 C.3       1 <0>         0.1016
     14 C12        -4.7603   -3.9658    5.6136 C.3       1 <0>         0.0579
     15 C13        -4.1946   -5.3418    5.8538 C.2       1 <0>         0.1622
     16 C14        -3.8254   -5.7162    7.1131 C.2       1 <0>        -0.2892
     17 C15        -3.3005   -7.0055    7.3122 C.2       1 <0>         0.5429
     18 O1         -2.9606   -7.3735    8.4247 O.2       1 <0>        -0.5051
     19 N3         -3.1803   -7.8286    6.2486 N.am      1 <0>        -0.6508
     20 H1         -2.8210   -8.7223    6.3631 H         1 <0>         0.4205
     21 C16        -3.5651   -7.4003    5.0160 C.2       1 <0>         0.6614
     22 N4         -4.0610   -6.1919    4.8383 N.2       1 <0>        -0.6149
     23 N5         -3.4401   -8.2406    3.9426 N.pl3     1 <0>        -0.5754
     24 C17        -3.0133   -9.6344    4.1296 C.3       1 <0>         0.0916
     25 C18        -4.0652  -10.5575    3.5022 C.3       1 <0>         0.0976
     26 N6         -4.3560  -10.0821    2.1423 N.am      1 <0>        -0.6237
     27 C19        -4.7828   -8.6883    1.9553 C.3       1 <0>         0.0910
     28 C20        -3.7363   -7.7668    2.5833 C.3       1 <0>         0.1082
     29 C21        -4.2329  -10.9095    1.0855 C.2       1 <0>         0.5181
     30 O2         -3.8795  -12.0576    1.2521 O.2       1 <0>        -0.5169
     31 C22        -4.5346  -10.4079   -0.3032 C.3       1 <0>        -0.1354
     32 C23        -4.3179  -11.5378   -1.3118 C.3       1 <0>        -0.0807
     33 H2         -4.9153  -12.4025   -1.0227 H         1 <0>         0.0864
     34 C24        -2.8378  -11.9249   -1.3338 C.3       1 <0>        -0.1757
     35 C25        -4.7427  -11.0670   -2.7042 C.3       1 <0>        -0.1045
     36 C26        -5.0593  -12.2818   -3.5788 C.3       1 <0>        -0.0676
     37 C27        -6.2044  -13.0783   -2.9501 C.3       1 <0>        -0.1471
     38 C28        -5.4716  -11.8114   -4.9751 C.3       1 <0>        -0.1434
     39 C29        -3.8185  -13.1705   -3.6858 C.3       1 <0>        -0.1500
     40 H3         -3.2860    3.0990    0.1813 H         1 <0>         0.0768
     41 H4         -4.6468    2.6356   -0.8683 H         1 <0>         0.0727
     42 H5         -4.8367    2.6036    0.9012 H         1 <0>         0.0675
     43 H6         -3.3913    0.9020   -2.0147 H         1 <0>         0.1253
     44 H7         -2.6261   -1.4365   -1.9826 H         1 <0>         0.1275
     45 H8         -2.4767   -2.6559    0.1501 H         1 <0>         0.1213
     46 H9         -3.8555    0.8217    2.2232 H         1 <0>         0.1222
     47 H10        -2.3950   -0.9189    4.3725 H         1 <0>         0.0872
     48 H11        -3.7334   -0.0085    3.6236 H         1 <0>         0.1271
     49 H12        -4.4623   -1.3867    5.6056 H         1 <0>         0.1422
     50 H13        -5.2963   -1.8328    4.0976 H         1 <0>         0.1349
     51 H14        -3.4863   -4.8867    3.5473 H         1 <0>         0.1664
     52 H15        -4.7514   -3.7869    2.9484 H         1 <0>         0.1309
     53 H16        -2.7631   -3.5232    1.5573 H         1 <0>         0.1241
     54 H17        -1.7508   -3.2525    3.0006 H         1 <0>         0.0817
     55 H18        -4.8764   -3.4493    6.5664 H         1 <0>         0.1507
     56 H19        -5.7315   -4.0522    5.1265 H         1 <0>         0.1488
     57 H20        -3.9341   -5.0336    7.9429 H         1 <0>         0.1633
     58 H21        -2.0514   -9.7911    3.6414 H         1 <0>         0.0998
     59 H22        -2.9254   -9.8504    5.1943 H         1 <0>         0.0932
     60 H23        -3.6792  -11.5759    3.4590 H         1 <0>         0.1182
     61 H24        -4.9760  -10.5339    4.1005 H         1 <0>         0.0775
     62 H25        -4.8707   -8.4723    0.8906 H         1 <0>         0.1090
     63 H26        -5.7447   -8.5317    2.4435 H         1 <0>         0.0802
     64 H27        -4.1258   -6.7497    2.6272 H         1 <0>         0.1152
     65 H28        -2.8270   -7.7874    1.9825 H         1 <0>         0.0876
     66 H29        -5.5703  -10.0718   -0.3512 H         1 <0>         0.0940
     67 H30        -3.8713   -9.5763   -0.5412 H         1 <0>         0.0930
     68 H31        -2.2356  -11.0455   -1.5618 H         1 <0>         0.0440
     69 H32        -2.5508  -12.3191   -0.3590 H         1 <0>         0.0674
     70 H33        -2.6727  -12.6860   -2.0965 H         1 <0>         0.0799
     71 H34        -5.6294  -10.4386   -2.6205 H         1 <0>         0.0611
     72 H35        -3.9331  -10.4945   -3.1569 H         1 <0>         0.0643
     73 H36        -7.0884  -12.4451   -2.8739 H         1 <0>         0.0531
     74 H37        -6.4300  -13.9437   -3.5732 H         1 <0>         0.0559
     75 H38        -5.9107  -13.4134   -1.9554 H         1 <0>         0.0591
     76 H39        -4.6558  -11.2440   -5.4230 H         1 <0>         0.0544
     77 H40        -5.6972  -12.6769   -5.5982 H         1 <0>         0.0566
     78 H41        -6.3556  -11.1783   -4.8989 H         1 <0>         0.0536
     79 H42        -3.6677  -13.6988   -2.7443 H         1 <0>         0.0658
     80 H43        -3.9574  -13.8933   -4.4897 H         1 <0>         0.0532
     81 H44        -2.9463  -12.5526   -3.8994 H         1 <0>         0.0578
     82 H45        -2.9271   -3.1925    5.1679 H         1 <0>         0.4225
@<TRIPOS>BOND
     1    1    2 1
     2    1   40 1
     3    1   41 1
     4    1   42 1
     5    2    7 ar
     6    2    3 ar
     7    3    4 ar
     8    3   43 1
     9    4    5 ar
    10    4   44 1
    11    5    6 ar
    12    5   45 1
    13    6    7 ar
    14    6    8 1
    15    7   46 1
    16    8   13 1
    17    8    9 1
    18    9   10 1
    19    9   47 1
    20    9   48 1
    21   10   11 1
    22   10   49 1
    23   10   50 1
    24   11   12 1
    25   11   14 1
    26   11   82 1
    27   12   13 1
    28   12   51 1
    29   12   52 1
    30   13   53 1
    31   13   54 1
    32   14   15 1
    33   14   55 1
    34   14   56 1
    35   15   22 1
    36   15   16 2
    37   16   17 1
    38   16   57 1
    39   17   18 2
    40   17   19 am
    41   19   20 1
    42   19   21 1
    43   21   22 2
    44   21   23 1
    45   23   28 1
    46   23   24 1
    47   24   25 1
    48   24   58 1
    49   24   59 1
    50   25   26 1
    51   25   60 1
    52   25   61 1
    53   26   27 1
    54   26   29 am
    55   27   28 1
    56   27   62 1
    57   27   63 1
    58   28   64 1
    59   28   65 1
    60   29   30 2
    61   29   31 1
    62   31   32 1
    63   31   66 1
    64   31   67 1
    65   32   33 1
    66   32   34 1
    67   32   35 1
    68   34   68 1
    69   34   69 1
    70   34   70 1
    71   35   36 1
    72   35   71 1
    73   35   72 1
    74   36   37 1
    75   36   38 1
    76   36   39 1
    77   37   73 1
    78   37   74 1
    79   37   75 1
    80   38   76 1
    81   38   77 1
    82   38   78 1
    83   39   79 1
    84   39   80 1
    85   39   81 1
@<TRIPOS>MOLECULE
ZINC04834432
   59    62     0     0     0
SMALL
USER_CHARGES
N-(2,3-dimethylcyclohexyl)-1-(2-hydroxyethylamino)-9,10-dioxo-anthracene-2-carboxamide
@<TRIPOS>ATOM
      1 C1         -4.5919   -0.1528    1.9381 C.3       1 <0>        -0.1574
      2 C2         -4.8294    1.1308    1.1402 C.3       1 <0>        -0.0819
      3 H1         -5.5879    1.7338    1.6393 H         1 <0>         0.0759
      4 C3         -5.3072    0.7744   -0.2689 C.3       1 <0>        -0.1181
      5 C4         -4.2425   -0.0720   -0.9696 C.3       1 <0>        -0.1189
      6 C5         -2.9376    0.7217   -1.0591 C.3       1 <0>        -0.1294
      7 C6         -2.4598    1.0781    0.3500 C.3       1 <0>         0.1488
      8 H2         -2.2905    0.1636    0.9184 H         1 <0>         0.0959
      9 C7         -3.5245    1.9245    1.0506 C.3       1 <0>        -0.0937
     10 H3         -3.6937    2.8390    0.4822 H         1 <0>         0.0758
     11 C8         -3.0467    2.2810    2.4597 C.3       1 <0>        -0.1514
     12 N1         -1.2103    1.8381    0.2642 N.am      1 <0>        -0.7146
     13 C9         -0.0325    1.1900    0.1686 C.2       1 <0>         0.5633
     14 O1         -0.0070   -0.0254    0.1535 O.2       1 <0>        -0.5321
     15 C10         1.2264    1.9560    0.0761 C.ar      1 <0>        -0.1695
     16 C11         1.1911    3.3455   -0.0242 C.ar      1 <0>        -0.0566
     17 C12         2.3649    4.0714   -0.1114 C.ar      1 <0>        -0.0872
     18 C13         3.5963    3.4225   -0.1000 C.ar      1 <0>        -0.0854
     19 C14         3.6508    2.0208    0.0007 C.ar      1 <0>        -0.1124
     20 C15         2.4620    1.2840    0.0949 C.ar      1 <0>         0.2118
     21 N2          2.5034   -0.0913    0.1998 N.pl3     1 <0>        -0.6244
     22 C16         2.3416   -0.5179    1.5961 C.3       1 <0>         0.0841
     23 C17         2.4967   -2.0374    1.6864 C.3       1 <0>         0.0848
     24 O2          3.8322   -2.4017    1.3321 O.3       1 <0>        -0.5487
     25 C18         4.9514    1.3301    0.0126 C.2       1 <0>         0.4126
     26 O3          4.9955    0.1183    0.1001 O.2       1 <0>        -0.3598
     27 C19         6.2032    2.1106   -0.0813 C.ar      1 <0>        -0.1085
     28 C20         7.4355    1.4640   -0.0711 C.ar      1 <0>        -0.0725
     29 C21         8.6027    2.2024   -0.1599 C.ar      1 <0>        -0.0945
     30 C22         8.5536    3.5811   -0.2585 C.ar      1 <0>        -0.1051
     31 C23         7.3370    4.2400   -0.2706 C.ar      1 <0>        -0.0666
     32 C24         6.1530    3.5123   -0.1821 C.ar      1 <0>        -0.1293
     33 C25         4.8488    4.2060   -0.1941 C.2       1 <0>         0.4364
     34 O4          4.8043    5.4169   -0.2815 O.2       1 <0>        -0.4258
     35 H4         -3.8334   -0.7558    1.4389 H         1 <0>         0.0610
     36 H5         -4.2515    0.1011    2.9420 H         1 <0>         0.0580
     37 H6         -5.5215   -0.7183    2.0019 H         1 <0>         0.0565
     38 H7         -5.4765    1.6889   -0.8374 H         1 <0>         0.0631
     39 H8         -6.2369    0.2089   -0.2052 H         1 <0>         0.0660
     40 H9         -4.5829   -0.3260   -1.9735 H         1 <0>         0.0657
     41 H10        -4.0733   -0.9865   -0.4011 H         1 <0>         0.0682
     42 H11        -3.1068    1.6362   -1.6276 H         1 <0>         0.0639
     43 H12        -2.1791    0.1187   -1.5583 H         1 <0>         0.0683
     44 H13        -2.1170    2.8464    2.3960 H         1 <0>         0.0534
     45 H14        -3.8052    2.8840    2.9589 H         1 <0>         0.0596
     46 H15        -2.8774    1.3665    3.0282 H         1 <0>         0.0606
     47 H16        -1.2306    2.8079    0.2763 H         1 <0>         0.3999
     48 H17         0.2409    3.8587   -0.0343 H         1 <0>         0.1375
     49 H18         2.3259    5.1479   -0.1884 H         1 <0>         0.1500
     50 H19         1.8080   -0.5202   -0.3923 H         1 <0>         0.3722
     51 H20         3.1012   -0.0379    2.2131 H         1 <0>         0.0720
     52 H21         1.3514   -0.2321    1.9509 H         1 <0>         0.0523
     53 H22         2.2891   -2.3639    2.7054 H         1 <0>         0.0465
     54 H23         1.7959   -2.5154    1.0019 H         1 <0>         0.0471
     55 H24         4.0029   -3.3529    1.3674 H         1 <0>         0.3703
     56 H25         7.4810    0.3878    0.0064 H         1 <0>         0.1448
     57 H26         9.5580    1.6988   -0.1518 H         1 <0>         0.1377
     58 H27         9.4709    4.1470   -0.3269 H         1 <0>         0.1375
     59 H28         7.3057    5.3167   -0.3485 H         1 <0>         0.1424
@<TRIPOS>BOND
     1    1    2 1
     2    1   35 1
     3    1   36 1
     4    1   37 1
     5    2    3 1
     6    2    9 1
     7    2    4 1
     8    4    5 1
     9    4   38 1
    10    4   39 1
    11    5    6 1
    12    5   40 1
    13    5   41 1
    14    6    7 1
    15    6   42 1
    16    6   43 1
    17    7    8 1
    18    7    9 1
    19    7   12 1
    20    9   10 1
    21    9   11 1
    22   11   44 1
    23   11   45 1
    24   11   46 1
    25   12   13 am
    26   12   47 1
    27   13   14 2
    28   13   15 1
    29   15   20 ar
    30   15   16 ar
    31   16   17 ar
    32   16   48 1
    33   17   18 ar
    34   17   49 1
    35   18   33 1
    36   18   19 ar
    37   19   20 ar
    38   19   25 1
    39   20   21 1
    40   21   22 1
    41   21   50 1
    42   22   23 1
    43   22   51 1
    44   22   52 1
    45   23   24 1
    46   23   53 1
    47   23   54 1
    48   24   55 1
    49   25   26 2
    50   25   27 1
    51   27   32 ar
    52   27   28 ar
    53   28   29 ar
    54   28   56 1
    55   29   30 ar
    56   29   57 1
    57   30   31 ar
    58   30   58 1
    59   31   32 ar
    60   31   59 1
    61   32   33 1
    62   33   34 2
@<TRIPOS>MOLECULE
ZINC02361299
   54    56     0     0     0
SMALL
USER_CHARGES
2-hydroxy-N-[(2-hydroxy-3-methoxy-phenyl)methyleneamino]-2,2-bis(p-tolyl)acetamide
@<TRIPOS>ATOM
      1 C1         -8.5341    9.0530    4.5971 C.3       1 <0>        -0.1182
      2 C2         -7.6383    8.7594    3.4213 C.ar      1 <0>        -0.0747
      3 C3         -8.1882    8.5254    2.1748 C.ar      1 <0>        -0.1237
      4 C4         -7.3665    8.2561    1.0963 C.ar      1 <0>        -0.0778
      5 C5         -5.9948    8.2218    1.2641 C.ar      1 <0>        -0.0895
      6 C6         -5.4451    8.4512    2.5116 C.ar      1 <0>        -0.1032
      7 C7         -6.2666    8.7247    3.5892 C.ar      1 <0>        -0.1182
      8 C8         -5.0989    7.9284    0.0884 C.3       1 <0>         0.2236
      9 C9         -4.5292    9.2182   -0.4433 C.ar      1 <0>        -0.1168
     10 C10        -3.8419   10.0702    0.4009 C.ar      1 <0>        -0.0688
     11 C11        -3.3155   11.2512   -0.0879 C.ar      1 <0>        -0.1226
     12 C12        -3.4847   11.5849   -1.4186 C.ar      1 <0>        -0.0745
     13 C13        -4.1762   10.7353   -2.2617 C.ar      1 <0>        -0.1239
     14 C14        -4.6988    9.5521   -1.7740 C.ar      1 <0>        -0.0999
     15 C15        -2.9149   12.8748   -1.9504 C.3       1 <0>        -0.1178
     16 C16        -3.9747    7.0255    0.5265 C.2       1 <0>         0.5150
     17 O1         -2.9068    7.5005    0.8517 O.2       1 <0>        -0.4766
     18 N1         -4.1556    5.6903    0.5570 N.am      1 <0>        -0.5774
     19 N2         -3.1104    4.8509    0.9642 N.2       1 <0>        -0.1978
     20 C17        -3.2846    3.5650    0.9936 C.2       1 <0>         0.1011
     21 C18        -2.1850    2.6820    1.4221 C.ar      1 <0>        -0.0473
     22 C19        -2.3672    1.2964    1.4499 C.ar      1 <0>        -0.1130
     23 C20        -1.3379    0.4741    1.8558 C.ar      1 <0>        -0.0923
     24 C21        -0.1178    1.0130    2.2272 C.ar      1 <0>        -0.1818
     25 C22         0.0787    2.3845    2.2000 C.ar      1 <0>         0.0966
     26 C23        -0.9515    3.2265    1.7981 C.ar      1 <0>         0.1156
     27 O2         -0.7623    4.5720    1.7707 O.3       1 <0>        -0.4595
     28 O3          1.2800    2.9067    2.5662 O.3       1 <0>        -0.3057
     29 C24         2.2936    1.9829    2.9677 C.3       1 <0>         0.0244
     30 O4         -5.8558    7.2831   -0.9377 O.3       1 <0>        -0.5388
     31 H1         -8.8017    8.1194    5.0919 H         1 <0>         0.0727
     32 H2         -8.0100    9.6998    5.3006 H         1 <0>         0.0683
     33 H3         -9.4385    9.5520    4.2491 H         1 <0>         0.0685
     34 H4         -9.2599    8.5525    2.0437 H         1 <0>         0.1263
     35 H5         -7.7961    8.0729    0.1226 H         1 <0>         0.1343
     36 H6         -4.3736    8.4200    2.6436 H         1 <0>         0.1272
     37 H7         -5.8369    8.9079    4.5630 H         1 <0>         0.1266
     38 H8         -3.7132    9.8114    1.4415 H         1 <0>         0.1260
     39 H9         -2.7750   11.9149    0.5707 H         1 <0>         0.1249
     40 H10        -4.3084   10.9960   -3.3014 H         1 <0>         0.1249
     41 H11        -5.2393    8.8885   -2.4326 H         1 <0>         0.1263
     42 H12        -3.6544   13.6688   -1.8463 H         1 <0>         0.0724
     43 H13        -2.0194   13.1361   -1.3866 H         1 <0>         0.0680
     44 H14        -2.6589   12.7523   -3.0028 H         1 <0>         0.0675
     45 H15        -5.0094    5.3104    0.2969 H         1 <0>         0.3906
     46 H16        -4.2352    3.1421    0.7041 H         1 <0>         0.1246
     47 H17        -3.3156    0.8704    1.1573 H         1 <0>         0.1348
     48 H18        -1.4825   -0.5959    1.8799 H         1 <0>         0.1338
     49 H19         0.6846    0.3612    2.5399 H         1 <0>         0.1347
     50 H20        -0.4275    4.9050    0.9268 H         1 <0>         0.3881
     51 H21         3.1986    2.5294    3.2332 H         1 <0>         0.1026
     52 H22         1.9462    1.4145    3.8303 H         1 <0>         0.0567
     53 H23         2.5093    1.3004    2.1457 H         1 <0>         0.0562
     54 H24        -5.3417    7.0641   -1.7269 H         1 <0>         0.3872
@<TRIPOS>BOND
     1    1    2 1
     2    1   31 1
     3    1   32 1
     4    1   33 1
     5    2    7 ar
     6    2    3 ar
     7    3    4 ar
     8    3   34 1
     9    4    5 ar
    10    4   35 1
    11    5    6 ar
    12    5    8 1
    13    6    7 ar
    14    6   36 1
    15    7   37 1
    16    8    9 1
    17    8   16 1
    18    8   30 1
    19    9   14 ar
    20    9   10 ar
    21   10   11 ar
    22   10   38 1
    23   11   12 ar
    24   11   39 1
    25   12   13 ar
    26   12   15 1
    27   13   14 ar
    28   13   40 1
    29   14   41 1
    30   15   42 1
    31   15   43 1
    32   15   44 1
    33   16   17 2
    34   16   18 am
    35   18   19 1
    36   18   45 1
    37   19   20 2
    38   20   21 1
    39   20   46 1
    40   21   26 ar
    41   21   22 ar
    42   22   23 ar
    43   22   47 1
    44   23   24 ar
    45   23   48 1
    46   24   25 ar
    47   24   49 1
    48   25   26 ar
    49   25   28 1
    50   26   27 1
    51   27   50 1
    52   28   29 1
    53   29   51 1
    54   29   52 1
    55   29   53 1
    56   30   54 1
@<TRIPOS>MOLECULE
ZINC31609515
   50    52     0     0     0
SMALL
USER_CHARGES
1-[(1S,2R)-2-methylcyclohexyl]-3-[[4-methyl-2-(5-methyl-2-furyl)thiazole-5-carbonyl]amino]thiourea
@<TRIPOS>ATOM
      1 C1         -0.0127    1.0858    0.0080 C.3       1 <0>        -0.0862
      2 C2         -0.7181    1.5718    1.2479 C.2       1 <0>         0.0370
      3 C3         -0.9156    2.8636    1.5846 C.2       1 <0>        -0.2159
      4 C4         -1.6121    2.8705    2.8061 C.2       1 <0>        -0.1294
      5 C5         -1.7974    1.5659    3.1595 C.2       1 <0>         0.0285
      6 O1         -1.2483    0.7916    2.2020 O.3       1 <0>        -0.1467
      7 C6         -2.4762    1.0883    4.3711 C.2       1 <0>         0.2172
      8 N1         -2.6928   -0.1619    4.7780 N.2       1 <0>        -0.4993
      9 C7         -3.3182   -0.4178    5.8920 C.2       1 <0>         0.1786
     10 C8         -3.7700    0.6382    6.6745 C.2       1 <0>        -0.2764
     11 S1         -3.2236    2.0306    5.6938 S.3       1 <0>         0.0906
     12 C9         -4.4887    0.6167    7.9500 C.2       1 <0>         0.6293
     13 O2         -4.7717   -0.4462    8.4714 O.2       1 <0>        -0.5040
     14 N2         -4.8369    1.7739    8.5468 N.am      1 <0>        -0.5515
     15 N3         -5.5246    1.7534    9.7672 N.pl3     1 <0>        -0.4793
     16 C10        -5.8728    2.9106   10.3640 C.2       1 <0>         0.5683
     17 S2         -6.7132    2.8856   11.8554 S.2       1 <0>        -0.6009
     18 N4         -5.5595    4.0875    9.7867 N.pl3     1 <0>        -0.6851
     19 C11        -5.9380    5.3453   10.4355 C.3       1 <0>         0.1529
     20 H1         -6.9065    5.1769   10.9292 H         1 <0>         0.1201
     21 C12        -4.8705    5.7316   11.4612 C.3       1 <0>        -0.1328
     22 C13        -3.5245    5.9067   10.7551 C.3       1 <0>        -0.1197
     23 C14        -3.6414    7.0093    9.7008 C.3       1 <0>        -0.1241
     24 C15        -4.7089    6.6231    8.6751 C.3       1 <0>        -0.1149
     25 C16        -6.0549    6.4479    9.3811 C.3       1 <0>        -0.1006
     26 H2         -6.3392    7.3924    9.8680 H         1 <0>         0.0961
     27 C17        -7.1224    6.0616    8.3554 C.3       1 <0>        -0.1508
     28 C18        -3.5493   -1.8421    6.3268 C.3       1 <0>        -0.1164
     29 H3          0.3152    1.9492   -0.5895 H         1 <0>         0.0996
     30 H4         -0.7013    0.4682   -0.5873 H         1 <0>         0.0881
     31 H5          0.8628    0.4853    0.2958 H         1 <0>         0.0881
     32 H6         -0.6004    3.7292    1.0208 H         1 <0>         0.1633
     33 H7         -1.9341    3.7401    3.3597 H         1 <0>         0.1610
     34 H8         -4.5811    2.7344    8.0757 H         1 <0>         0.4327
     35 H9         -5.7804    0.7929   10.2383 H         1 <0>         0.4908
     36 H10        -5.0196    4.1036    8.8284 H         1 <0>         0.3983
     37 H11        -5.1547    6.6761   11.9482 H         1 <0>         0.0802
     38 H12        -4.7865    4.9390   12.2193 H         1 <0>         0.0837
     39 H13        -2.7570    6.1844   11.4926 H         1 <0>         0.0665
     40 H14        -3.2403    4.9622   10.2680 H         1 <0>         0.0533
     41 H15        -3.9256    7.9537   10.1879 H         1 <0>         0.0688
     42 H16        -2.6737    7.1353    9.1931 H         1 <0>         0.0641
     43 H17        -4.7929    7.4158    7.9171 H         1 <0>         0.0726
     44 H18        -4.4247    5.6787    8.1880 H         1 <0>         0.0495
     45 H19        -7.2064    6.8543    7.5974 H         1 <0>         0.0617
     46 H20        -8.0901    5.9356    8.8631 H         1 <0>         0.0628
     47 H21        -6.8381    5.1171    7.8684 H         1 <0>         0.0480
     48 H22        -4.0894   -1.8499    7.2851 H         1 <0>         0.1118
     49 H23        -2.5812   -2.3503    6.4473 H         1 <0>         0.0855
     50 H24        -4.1460   -2.3657    5.5653 H         1 <0>         0.0855
@<TRIPOS>BOND
     1    1    2 1
     2    1   29 1
     3    1   30 1
     4    1   31 1
     5    2    6 1
     6    2    3 2
     7    3    4 1
     8    3   32 1
     9    4    5 2
    10    4   33 1
    11    5    6 1
    12    5    7 1
    13    7   11 1
    14    7    8 2
    15    8    9 1
    16    9   10 2
    17    9   28 1
    18   10   11 1
    19   10   12 1
    20   12   13 2
    21   12   14 am
    22   14   15 1
    23   14   34 1
    24   15   16 1
    25   15   35 1
    26   16   17 2
    27   16   18 1
    28   18   19 1
    29   18   36 1
    30   19   20 1
    31   19   25 1
    32   19   21 1
    33   21   22 1
    34   21   37 1
    35   21   38 1
    36   22   23 1
    37   22   39 1
    38   22   40 1
    39   23   24 1
    40   23   41 1
    41   23   42 1
    42   24   25 1
    43   24   43 1
    44   24   44 1
    45   25   26 1
    46   25   27 1
    47   27   45 1
    48   27   46 1
    49   27   47 1
    50   28   48 1
    51   28   49 1
    52   28   50 1
@<TRIPOS>MOLECULE
ZINC42097559
   50    52     0     0     0
SMALL
USER_CHARGES

@<TRIPOS>ATOM
      1 C1         -0.0184    1.5028    0.0103 C.3       1 <0>        -0.0747
      2 C2          0.0021   -0.0041    0.0020 C.2       1 <0>        -0.0119
      3 C3         -1.0703   -0.8154    0.0025 C.2       1 <0>        -0.0002
      4 N1         -0.6285   -2.0828   -0.0064 N.2       1 <0>        -0.4505
      5 C4          0.6866   -2.0689   -0.0123 C.2       1 <0>         0.2795
      6 O1          1.0995   -0.7885   -0.0131 O.3       1 <0>        -0.1846
      7 C5          1.5582   -3.2528   -0.0227 C.2       1 <0>        -0.1145
      8 C6          2.9393   -3.3185   -0.0237 C.2       1 <0>        -0.1096
      9 C7          3.5355   -4.5579   -0.0345 C.2       1 <0>        -0.1636
     10 C8          2.7559   -5.6706   -0.0438 C.2       1 <0>        -0.1668
     11 S1          1.1096   -4.9809   -0.0294 S.3       1 <0>         0.1513
     12 C9         -2.5127   -0.3790    0.0114 C.3       1 <0>        -0.0442
     13 C10        -3.0000   -0.2258   -1.4063 C.2       1 <0>         0.5222
     14 O2         -2.2498   -0.4490   -2.3328 O.2       1 <0>        -0.5050
     15 N2         -4.2693    0.1593   -1.6447 N.am      1 <0>        -0.5509
     16 N3         -4.7223    0.3018   -2.9628 N.pl3     1 <0>        -0.4715
     17 C11        -5.9917    0.6869   -3.2012 C.2       1 <0>         0.5623
     18 S2         -6.5453    0.8609   -4.8119 S.2       1 <0>        -0.5894
     19 N4         -6.8253    0.9349   -2.1716 N.pl3     1 <0>        -0.6783
     20 C12        -8.2051    1.3535   -2.4308 C.3       1 <0>         0.1485
     21 H1         -8.2331    1.9815   -3.3213 H         1 <0>         0.1199
     22 C13        -9.0803    0.1179   -2.6503 C.3       1 <0>        -0.1296
     23 C14       -10.5213    0.5550   -2.9209 C.3       1 <0>        -0.1151
     24 C15       -11.0478    1.3465   -1.7221 C.3       1 <0>        -0.1240
     25 C16       -10.1727    2.5821   -1.5025 C.3       1 <0>        -0.1102
     26 C17        -8.7317    2.1450   -1.2319 C.3       1 <0>        -0.0989
     27 H2         -8.7037    1.5170   -0.3414 H         1 <0>         0.0745
     28 C18        -7.8565    3.3806   -1.0124 C.3       1 <0>        -0.1504
     29 H3          1.0042    1.8801    0.0026 H         1 <0>         0.0851
     30 H4         -0.5455    1.8639   -0.8728 H         1 <0>         0.0915
     31 H5         -0.5286    1.8543    0.9071 H         1 <0>         0.0941
     32 H6          3.5357   -2.4181   -0.0166 H         1 <0>         0.1420
     33 H7          4.6120   -4.6457   -0.0360 H         1 <0>         0.1438
     34 H8          3.0559   -6.7081   -0.0531 H         1 <0>         0.1951
     35 H9         -3.1159   -1.1284    0.5240 H         1 <0>         0.1240
     36 H10        -2.6003    0.5753    0.5309 H         1 <0>         0.1216
     37 H11        -4.8693    0.3379   -0.9037 H         1 <0>         0.4200
     38 H12        -4.1224    0.1232   -3.7038 H         1 <0>         0.4587
     39 H13        -6.5117    0.8363   -1.2591 H         1 <0>         0.3895
     40 H14        -8.7051   -0.4459   -3.5044 H         1 <0>         0.0821
     41 H15        -9.0522   -0.5101   -1.7598 H         1 <0>         0.0597
     42 H16       -10.5493    1.1830   -3.8115 H         1 <0>         0.0701
     43 H17       -11.1447   -0.3253   -3.0773 H         1 <0>         0.0677
     44 H18       -12.0744    1.6579   -1.9149 H         1 <0>         0.0670
     45 H19       -11.0198    0.7185   -0.8316 H         1 <0>         0.0618
     46 H20       -10.2007    3.2101   -2.3931 H         1 <0>         0.0699
     47 H21       -10.5478    3.1459   -0.6484 H         1 <0>         0.0700
     48 H22        -7.8846    4.0085   -1.9029 H         1 <0>         0.0620
     49 H23        -8.2317    3.9444   -0.1583 H         1 <0>         0.0618
     50 H24        -6.8299    3.0692   -0.8196 H         1 <0>         0.0484
@<TRIPOS>BOND
     1    1    2 1
     2    1   29 1
     3    1   30 1
     4    1   31 1
     5    2    6 1
     6    2    3 2
     7    3    4 1
     8    3   12 1
     9    4    5 2
    10    5    6 1
    11    5    7 1
    12    7   11 1
    13    7    8 2
    14    8    9 1
    15    8   32 1
    16    9   10 2
    17    9   33 1
    18   10   11 1
    19   10   34 1
    20   12   13 1
    21   12   35 1
    22   12   36 1
    23   13   14 2
    24   13   15 am
    25   15   16 1
    26   15   37 1
    27   16   17 1
    28   16   38 1
    29   17   18 2
    30   17   19 1
    31   19   20 1
    32   19   39 1
    33   20   21 1
    34   20   26 1
    35   20   22 1
    36   22   23 1
    37   22   40 1
    38   22   41 1
    39   23   24 1
    40   23   42 1
    41   23   43 1
    42   24   25 1
    43   24   44 1
    44   24   45 1
    45   25   26 1
    46   25   46 1
    47   25   47 1
    48   26   27 1
    49   26   28 1
    50   28   48 1
    51   28   49 1
    52   28   50 1
@<TRIPOS>MOLECULE
ZINC56157843
   47    49     0     0     0
SMALL
USER_CHARGES

@<TRIPOS>ATOM
      1 C1         -0.0948    1.4370   -0.6166 C.3       1 <0>        -0.1696
      2 C2         -0.1218   -0.0926   -0.5947 C.3       1 <0>         0.1381
      3 H1          0.4420   -0.4536    0.2656 H         1 <0>         0.1120
      4 C3          0.4988   -0.6241   -1.8609 C.2       1 <0>         0.5125
      5 O1         -0.1531   -1.3208   -2.6097 O.2       1 <0>        -0.5036
      6 N1          1.7782   -0.3253   -2.1614 N.am      1 <0>        -0.6709
      7 C4          2.3834   -0.8933   -3.2878 C.ar      1 <0>         0.1763
      8 C5          3.7298   -1.2322   -3.2580 C.ar      1 <0>        -0.1450
      9 C6          4.3242   -1.7927   -4.3715 C.ar      1 <0>        -0.0496
     10 C7          3.5801   -2.0166   -5.5154 C.ar      1 <0>        -0.1983
     11 C8          2.2393   -1.6799   -5.5485 C.ar      1 <0>        -0.0495
     12 C9          1.6375   -1.1247   -4.4362 C.ar      1 <0>        -0.1228
     13 C10         4.2319   -2.6284   -6.7286 C.3       1 <0>         0.5098
     14 F1          4.1209   -4.0215   -6.6650 F         1 <0>        -0.1759
     15 F2          3.5963   -2.1622   -7.8844 F         1 <0>        -0.1766
     16 F3          5.5836   -2.2694   -6.7627 F         1 <0>        -0.1771
     17 N2         -1.5085   -0.5553   -0.4989 N.pl3     1 <0>        -0.7286
     18 C11        -2.1251   -0.6600    0.7500 C.ar      1 <0>         0.2456
     19 C12        -1.4257   -0.3199    1.9019 C.ar      1 <0>        -0.2267
     20 C13        -2.0351   -0.4228    3.1372 C.ar      1 <0>        -0.0430
     21 C14        -3.3411   -0.8642    3.2321 C.ar      1 <0>        -0.2151
     22 C15        -4.0455   -1.2061    2.0847 C.ar      1 <0>         0.2347
     23 C16        -3.4385   -1.0981    0.8417 C.ar      1 <0>        -0.2268
     24 N3         -5.3679   -1.6535    2.1819 N.am      1 <0>        -0.5700
     25 C17        -6.1656   -1.6927    3.4167 C.3       1 <0>         0.0856
     26 C18        -7.5236   -2.2611    2.9612 C.3       1 <0>         0.0909
     27 N4         -7.3469   -2.4818    1.5181 N.am      1 <0>        -0.7367
     28 C19        -6.1101   -2.1087    1.1640 C.2       1 <0>         0.6988
     29 O2         -5.6971   -2.1804    0.0227 O.2       1 <0>        -0.5631
     30 H2          0.9369    1.7813   -0.6878 H         1 <0>         0.0700
     31 H3         -0.6586    1.7980   -1.4768 H         1 <0>         0.0684
     32 H4         -0.5437    1.8215    0.2993 H         1 <0>         0.0805
     33 H5          2.2795    0.2836   -1.5967 H         1 <0>         0.4168
     34 H6          4.3116   -1.0573   -2.3650 H         1 <0>         0.1400
     35 H7          5.3713   -2.0561   -4.3490 H         1 <0>         0.1417
     36 H8          1.6610   -1.8556   -6.4435 H         1 <0>         0.1407
     37 H9          0.5891   -0.8667   -4.4610 H         1 <0>         0.1505
     38 H10        -1.9984   -0.7889   -1.3028 H         1 <0>         0.4116
     39 H11        -0.4046    0.0248    1.8311 H         1 <0>         0.1207
     40 H12        -1.4896   -0.1580    4.0309 H         1 <0>         0.1265
     41 H13        -3.8146   -0.9439    4.1995 H         1 <0>         0.1212
     42 H14        -3.9857   -1.3587   -0.0522 H         1 <0>         0.1574
     43 H15        -5.7020   -2.3515    4.1510 H         1 <0>         0.0928
     44 H16        -6.2882   -0.6894    3.8249 H         1 <0>         0.0929
     45 H17        -7.7343   -3.2021    3.4692 H         1 <0>         0.0893
     46 H18        -8.3205   -1.5401    3.1432 H         1 <0>         0.0891
     47 H19        -8.0203   -2.8372    0.9172 H         1 <0>         0.4343
@<TRIPOS>BOND
     1    1    2 1
     2    1   30 1
     3    1   31 1
     4    1   32 1
     5    2    3 1
     6    2    4 1
     7    2   17 1
     8    4    5 2
     9    4    6 am
    10    6    7 1
    11    6   33 1
    12    7   12 ar
    13    7    8 ar
    14    8    9 ar
    15    8   34 1
    16    9   10 ar
    17    9   35 1
    18   10   11 ar
    19   10   13 1
    20   11   12 ar
    21   11   36 1
    22   12   37 1
    23   13   14 1
    24   13   15 1
    25   13   16 1
    26   17   18 1
    27   17   38 1
    28   18   23 ar
    29   18   19 ar
    30   19   20 ar
    31   19   39 1
    32   20   21 ar
    33   20   40 1
    34   21   22 ar
    35   21   41 1
    36   22   23 ar
    37   22   24 1
    38   23   42 1
    39   24   28 am
    40   24   25 1
    41   25   26 1
    42   25   43 1
    43   25   44 1
    44   26   27 1
    45   26   45 1
    46   26   46 1
    47   27   28 am
    48   27   47 1
    49   28   29 2
@<TRIPOS>MOLECULE
ZINC67246665
   62    64     0     0     0
SMALL
USER_CHARGES

@<TRIPOS>ATOM
      1 C1         -0.0187    1.5258    0.0104 C.3       1 <0>        -0.1555
      2 C2          0.0021   -0.0041    0.0020 C.3       1 <0>        -0.1158
      3 C3         -1.4333   -0.5336    0.0129 C.3       1 <0>        -0.0542
      4 H1         -1.9701   -0.1109    0.8621 H         1 <0>         0.0774
      5 C4         -2.1352   -0.1312   -1.2857 C.3       1 <0>        -0.1463
      6 C5         -1.4136   -2.0361    0.1285 C.ar      1 <0>        -0.0715
      7 C6         -0.7798   -2.7953   -0.8374 C.ar      1 <0>        -0.1103
      8 C7         -0.7617   -4.1735   -0.7313 C.ar      1 <0>        -0.1023
      9 C8         -1.3769   -4.7924    0.3407 C.ar      1 <0>        -0.0913
     10 C9         -2.0099   -4.0331    1.3070 C.ar      1 <0>        -0.1099
     11 C10        -2.0243   -2.6547    1.2033 C.ar      1 <0>        -0.1159
     12 C11        -1.3580   -6.2949    0.4558 C.3       1 <0>         0.1912
     13 H2         -0.5503   -6.6960   -0.1563 H         1 <0>         0.0960
     14 C12        -2.6945   -6.8603   -0.0291 C.3       1 <0>        -0.1003
     15 C13        -3.8378   -6.2034    0.7469 C.3       1 <0>        -0.1523
     16 C14        -2.8591   -6.5708   -1.5224 C.3       1 <0>        -0.1472
     17 N1         -1.1457   -6.6749    1.8546 N.am      1 <0>        -0.7241
     18 C15        -0.6004   -7.8708    2.1527 C.2       1 <0>         0.5212
     19 O1         -0.2856   -8.6324    1.2629 O.2       1 <0>        -0.5302
     20 C16        -0.3820   -8.2617    3.5916 C.3       1 <0>        -0.1041
     21 C17         0.5544   -7.2515    4.2580 C.3       1 <0>        -0.1193
     22 C18         0.7657   -7.6427    5.7228 C.3       1 <0>        -0.1100
     23 C19         1.3656   -9.0425    5.7967 C.3       1 <0>         0.1208
     24 C20         0.4551  -10.0572    5.1140 C.3       1 <0>        -0.1125
     25 C21         0.2451   -9.6561    3.6517 C.3       1 <0>        -0.1079
     26 C22         2.7407   -9.0613    5.1700 C.2       1 <0>         0.5312
     27 O2          3.0263   -8.8080    4.0193 O.2       1 <0>        -0.4491
     28 N2          3.5835   -9.4195    6.1607 N.am      1 <0>        -0.6817
     29 C23         2.9319   -9.6260    7.3117 C.2       1 <0>         0.7042
     30 O3          3.4763   -9.9569    8.3467 O.2       1 <0>        -0.5398
     31 N3          1.6053   -9.4257    7.1940 N.am      1 <0>        -0.7185
     32 H3          1.0039    1.9031    0.0027 H         1 <0>         0.0549
     33 H4         -0.5459    1.8868   -0.8726 H         1 <0>         0.0576
     34 H5         -0.5289    1.8773    0.9072 H         1 <0>         0.0540
     35 H6          0.5123   -0.3556   -0.8948 H         1 <0>         0.0636
     36 H7          0.5293   -0.3651    0.8851 H         1 <0>         0.0624
     37 H8         -1.5984   -0.5539   -2.1349 H         1 <0>         0.0567
     38 H9         -3.1578   -0.5085   -1.2779 H         1 <0>         0.0553
     39 H10        -2.1495    0.9555   -1.3693 H         1 <0>         0.0615
     40 H11        -0.2992   -2.3118   -1.6750 H         1 <0>         0.1223
     41 H12        -0.2672   -4.7667   -1.4863 H         1 <0>         0.1229
     42 H13        -2.4908   -4.5166    2.1444 H         1 <0>         0.1199
     43 H14        -2.5156   -2.0613    1.9601 H         1 <0>         0.1216
     44 H15        -2.7148   -7.9375    0.1366 H         1 <0>         0.0782
     45 H16        -3.8175   -5.1262    0.5812 H         1 <0>         0.0643
     46 H17        -4.7899   -6.6062    0.4014 H         1 <0>         0.0545
     47 H18        -3.7205   -6.4097    1.8107 H         1 <0>         0.0515
     48 H19        -2.0445   -7.0388   -2.0752 H         1 <0>         0.0565
     49 H20        -3.8112   -6.9736   -1.8678 H         1 <0>         0.0576
     50 H21        -2.8388   -5.4936   -1.6880 H         1 <0>         0.0590
     51 H22        -1.3975   -6.0657    2.5663 H         1 <0>         0.3982
     52 H23        -1.3382   -8.2706    4.1148 H         1 <0>         0.0999
     53 H24         1.5137   -7.2488    3.7405 H         1 <0>         0.0890
     54 H25         0.1112   -6.2570    4.2076 H         1 <0>         0.0779
     55 H26         1.4442   -6.9317    6.1941 H         1 <0>         0.0800
     56 H27        -0.1918   -7.6302    6.2435 H         1 <0>         0.0907
     57 H28         0.9152  -11.0444    5.1571 H         1 <0>         0.0799
     58 H29        -0.5073  -10.0830    5.6251 H         1 <0>         0.0889
     59 H30        -0.4183  -10.3741    3.1695 H         1 <0>         0.0827
     60 H31         1.2055   -9.6453    3.1362 H         1 <0>         0.0906
     61 H32         4.5426   -9.5161    6.0524 H         1 <0>         0.4337
     62 H33         0.9398   -9.5162    7.8939 H         1 <0>         0.4418
@<TRIPOS>BOND
     1    1    2 1
     2    1   32 1
     3    1   33 1
     4    1   34 1
     5    2    3 1
     6    2   35 1
     7    2   36 1
     8    3    4 1
     9    3    5 1
    10    3    6 1
    11    5   37 1
    12    5   38 1
    13    5   39 1
    14    6   11 ar
    15    6    7 ar
    16    7    8 ar
    17    7   40 1
    18    8    9 ar
    19    8   41 1
    20    9   10 ar
    21    9   12 1
    22   10   11 ar
    23   10   42 1
    24   11   43 1
    25   12   13 1
    26   12   14 1
    27   12   17 1
    28   14   15 1
    29   14   16 1
    30   14   44 1
    31   15   45 1
    32   15   46 1
    33   15   47 1
    34   16   48 1
    35   16   49 1
    36   16   50 1
    37   17   18 am
    38   17   51 1
    39   18   19 2
    40   18   20 1
    41   20   25 1
    42   20   21 1
    43   20   52 1
    44   21   22 1
    45   21   53 1
    46   21   54 1
    47   22   23 1
    48   22   55 1
    49   22   56 1
    50   23   31 1
    51   23   24 1
    52   23   26 1
    53   24   25 1
    54   24   57 1
    55   24   58 1
    56   25   59 1
    57   25   60 1
    58   26   27 2
    59   26   28 am
    60   28   29 am
    61   28   61 1
    62   29   30 2
    63   29   31 am
    64   31   62 1
@<TRIPOS>MOLECULE
ZINC20218264
   38    38     0     0     0
SMALL
USER_CHARGES
(E)-4-[[(1S,2R,3S)-2,3-dimethylcyclohexyl]carbamoylamino]-4-oxo-but-2-enoic acid
@<TRIPOS>ATOM
      1 C1         -8.3679   -1.2762    0.4267 C.3       1 <0>        -0.1509
      2 C2         -7.2874   -0.3809   -0.1832 C.3       1 <0>        -0.0854
      3 H1         -6.3274   -0.9179   -0.1907 H         1 <0>         0.0687
      4 C3         -7.6779   -0.0144   -1.6164 C.3       1 <0>        -0.1151
      5 C4         -6.5975    0.8809   -2.2263 C.3       1 <0>        -0.1175
      6 C5         -6.4618    2.1566   -1.3926 C.3       1 <0>        -0.1330
      7 C6         -6.0713    1.7901    0.0406 C.3       1 <0>         0.1708
      8 H2         -5.9312    2.6966    0.6478 H         1 <0>         0.0878
      9 C7         -7.1517    0.8948    0.6505 C.3       1 <0>        -0.0905
     10 H3         -8.1117    1.4318    0.6580 H         1 <0>         0.0836
     11 C8         -6.7612    0.5283    2.0837 C.3       1 <0>        -0.1505
     12 N1         -4.7927    1.0749    0.0306 N.am      1 <0>        -0.7443
     13 C9         -3.6348    1.7646    0.0289 C.2       1 <0>         0.6971
     14 O1         -3.6513    2.9799    0.0356 O.2       1 <0>        -0.5410
     15 N2         -2.4586    1.1067    0.0197 N.am      1 <0>        -0.7022
     16 C10        -1.3007    1.7963    0.0180 C.2       1 <0>         0.5559
     17 O2         -1.3171    3.0111    0.0247 O.2       1 <0>        -0.4829
     18 C11        -0.0126    1.0758    0.0080 C.2       1 <0>        -0.2191
     19 C12         1.1413    1.7631    0.0006 C.2       1 <0>        -0.0633
     20 C13         2.4288    1.0429   -0.0155 C.2       1 <0>         0.4729
     21 O3          2.4453   -0.1715   -0.0222 O.co2     1 <0>        -0.6243
     22 O4          3.5865    1.7325   -0.0229 O.co2     1 <0>        -0.7462
     23 H4         -8.4655   -2.1934   -0.1727 H         1 <0>         0.0541
     24 H5         -9.3279   -0.7392    0.4341 H         1 <0>         0.0542
     25 H6         -8.0871   -1.5397    1.4571 H         1 <0>         0.0593
     26 H7         -7.7754   -0.9316   -2.2158 H         1 <0>         0.0617
     27 H8         -8.6379    0.5226   -1.6090 H         1 <0>         0.0620
     28 H9         -5.6375    0.3439   -2.2338 H         1 <0>         0.0632
     29 H10        -6.8783    1.1444   -3.2567 H         1 <0>         0.0601
     30 H11        -5.6850    2.8003   -1.8311 H         1 <0>         0.0693
     31 H12        -7.4218    2.6936   -1.3851 H         1 <0>         0.0691
     32 H13        -6.6636    1.4455    2.6831 H         1 <0>         0.0553
     33 H14        -5.8012   -0.0087    2.0762 H         1 <0>         0.0573
     34 H15        -7.5380   -0.1154    2.5222 H         1 <0>         0.0591
     35 H16        -4.7778   -0.0250    0.0245 H         1 <0>         0.4096
     36 H17        -2.4437    0.0068    0.0136 H         1 <0>         0.4311
     37 H18         0.0023   -0.0241    0.0066 H         1 <0>         0.1407
     38 H19         1.1264    2.8630    0.0065 H         1 <0>         0.1231
@<TRIPOS>BOND
     1    1    2 1
     2    1   23 1
     3    1   24 1
     4    1   25 1
     5    2    3 1
     6    2    9 1
     7    2    4 1
     8    4    5 1
     9    4   26 1
    10    4   27 1
    11    5    6 1
    12    5   28 1
    13    5   29 1
    14    6    7 1
    15    6   30 1
    16    6   31 1
    17    7    8 1
    18    7    9 1
    19    7   12 1
    20    9   10 1
    21    9   11 1
    22   11   32 1
    23   11   33 1
    24   11   34 1
    25   12   13 am
    26   12   35 1
    27   13   14 2
    28   13   15 am
    29   15   16 am
    30   15   36 1
    31   16   17 2
    32   16   18 1
    33   18   19 2
    34   18   37 1
    35   19   20 1
    36   19   38 1
    37   20   21 2
    38   20   22 1
@<TRIPOS>MOLECULE
ZINC38085459
   30    31     0     0     0
SMALL
USER_CHARGES

@<TRIPOS>ATOM
      1 C1         -0.0061    1.3686   -0.2420 C.ar      1 <0>        -0.1651
      2 C2          1.1747    2.0832   -0.2381 C.ar      1 <0>        -0.1893
      3 C3          2.3814    1.4346   -0.0242 C.ar      1 <0>         0.0975
      4 C4          2.4000    0.0482    0.1891 C.ar      1 <0>        -0.1152
      5 C5          1.1993   -0.6687    0.1842 C.ar      1 <0>        -0.1196
      6 C6          0.0035   -0.0066   -0.0312 C.ar      1 <0>         0.1605
      7 N1         -1.1994   -0.7221   -0.0370 N.pl3     1 <0>        -0.8882
      8 C7          3.6765   -0.6482    0.4165 C.2       1 <0>         0.5207
      9 O1          3.6890   -1.8573    0.6022 O.co2     1 <0>        -0.6939
     10 O2          4.7250   -0.0179    0.4198 O.co2     1 <0>        -0.6662
     11 O3          3.5412    2.1390   -0.0216 O.3       1 <0>        -0.2413
     12 C8          3.4373    3.5605   -0.1244 C.3       1 <0>         0.0719
     13 H1          2.5454    3.9031    0.4002 H         1 <0>         0.0892
     14 C9          3.3586    3.9698   -1.6045 C.3       1 <0>        -0.1557
     15 C10         3.5683    5.4971   -1.7415 C.3       1 <0>        -0.5733
     16 S1          4.6196    5.8927   -0.2852 S.o2      1 <0>         2.3750
     17 O4          3.9072    6.7721    0.5740 O.2       1 <0>        -0.9388
     18 O5          5.9173    6.2551   -0.7366 O.2       1 <0>        -0.9365
     19 C11         4.6994    4.2257    0.4952 C.3       1 <0>        -0.5646
     20 H2         -0.9431    1.8804   -0.4051 H         1 <0>         0.1133
     21 H3          1.1588    3.1505   -0.4025 H         1 <0>         0.1208
     22 H4          1.2054   -1.7363    0.3473 H         1 <0>         0.1313
     23 H5         -2.0383   -0.2592   -0.1879 H         1 <0>         0.3897
     24 H6         -1.1940   -1.6809    0.1098 H         1 <0>         0.3943
     25 H7          4.1323    3.4465   -2.1663 H         1 <0>         0.1012
     26 H8          2.3799    3.7018   -2.0026 H         1 <0>         0.0997
     27 H9          4.0886    5.7341   -2.6695 H         1 <0>         0.1426
     28 H10         2.6161    6.0246   -1.6855 H         1 <0>         0.1380
     29 H11         4.6165    4.2941    1.5799 H         1 <0>         0.1462
     30 H12         5.6069    3.6969    0.2038 H         1 <0>         0.1557
@<TRIPOS>BOND
     1    1    6 ar
     2    1    2 ar
     3    1   20 1
     4    2    3 ar
     5    2   21 1
     6    3    4 ar
     7    3   11 1
     8    4    5 ar
     9    4    8 1
    10    5    6 ar
    11    5   22 1
    12    6    7 1
    13    7   23 1
    14    7   24 1
    15    8    9 2
    16    8   10 1
    17   11   12 1
    18   12   13 1
    19   12   19 1
    20   12   14 1
    21   14   15 1
    22   14   25 1
    23   14   26 1
    24   15   16 1
    25   15   27 1
    26   15   28 1
    27   16   17 2
    28   16   18 2
    29   16   19 1
    30   19   29 1
    31   19   30 1
@<TRIPOS>MOLECULE
ZINC40572400
   40    41     0     0     0
SMALL
USER_CHARGES

@<TRIPOS>ATOM
      1 C1         -0.0187    1.5258    0.0104 C.3       1 <0>        -0.1461
      2 C2          0.0021   -0.0041    0.0020 C.3       1 <0>        -0.0927
      3 H1          0.5123   -0.3556   -0.8948 H         1 <0>         0.0659
      4 C3         -1.4333   -0.5336    0.0129 C.3       1 <0>        -0.1118
      5 C4         -1.4126   -2.0635    0.0045 C.3       1 <0>        -0.1158
      6 C5         -0.6726   -2.5703    1.2440 C.3       1 <0>        -0.1310
      7 C6          0.7628   -2.0407    1.2331 C.3       1 <0>         0.1667
      8 H2          1.2900   -2.4018    2.1162 H         1 <0>         0.0871
      9 C7          0.7421   -0.5109    1.2415 C.3       1 <0>        -0.1208
     10 N1          1.4485   -2.5132    0.0278 N.am      1 <0>        -0.7454
     11 C8          2.0336   -3.7273    0.0175 C.2       1 <0>         0.7308
     12 O1          1.9923   -4.4305    1.0085 O.2       1 <0>        -0.5705
     13 N2          2.6644   -4.1620   -1.0914 N.am      1 <0>        -0.6035
     14 C9          2.7953   -3.4133   -2.3546 C.3       1 <0>         0.0744
     15 C10         3.0088   -4.4991   -3.4387 C.3       1 <0>         0.0872
     16 H3          3.5376   -4.0921   -4.3005 H         1 <0>         0.0742
     17 C11         3.8893   -5.5274   -2.6806 C.3       1 <0>        -0.0971
     18 C12         3.3415   -5.4586   -1.2394 C.3       1 <0>         0.0889
     19 H4          2.6308   -6.2687   -1.0759 H         1 <0>         0.0663
     20 C13         4.4753   -5.5604   -0.2519 C.2       1 <0>         0.4924
     21 O2          4.6876   -4.6482    0.5287 O.co2     1 <0>        -0.6728
     22 O3          5.1803   -6.5550   -0.2336 O.co2     1 <0>        -0.7048
     23 O4          1.7645   -5.0811   -3.8328 O.3       1 <0>        -0.5528
     24 H5          1.0039    1.9031    0.0027 H         1 <0>         0.0542
     25 H6         -0.5459    1.8868   -0.8726 H         1 <0>         0.0521
     26 H7         -0.5289    1.8773    0.9072 H         1 <0>         0.0538
     27 H8         -1.9435   -0.1821    0.9097 H         1 <0>         0.0610
     28 H9         -1.9605   -0.1726   -0.8702 H         1 <0>         0.0576
     29 H10        -2.4352   -2.4408    0.0122 H         1 <0>         0.0571
     30 H11        -0.9024   -2.4150   -0.8923 H         1 <0>         0.0608
     31 H12        -1.1828   -2.2188    2.1408 H         1 <0>         0.0654
     32 H13        -0.6578   -3.6602    1.2380 H         1 <0>         0.0687
     33 H14         1.7647   -0.1336    1.2338 H         1 <0>         0.0687
     34 H15         0.2319   -0.1594    2.1383 H         1 <0>         0.0750
     35 H16         1.4815   -1.9522   -0.7628 H         1 <0>         0.3843
     36 H17         1.8852   -2.8488   -2.5571 H         1 <0>         0.0631
     37 H18         3.6556   -2.7453   -2.3123 H         1 <0>         0.0679
     38 H19         3.7608   -6.5264   -3.0972 H         1 <0>         0.0848
     39 H20         4.9376   -5.2299   -2.7055 H         1 <0>         0.0863
     40 H21         1.1424   -4.4522   -4.2234 H         1 <0>         0.3705
@<TRIPOS>BOND
     1    1    2 1
     2    1   24 1
     3    1   25 1
     4    1   26 1
     5    2    3 1
     6    2    9 1
     7    2    4 1
     8    4    5 1
     9    4   27 1
    10    4   28 1
    11    5    6 1
    12    5   29 1
    13    5   30 1
    14    6    7 1
    15    6   31 1
    16    6   32 1
    17    7    8 1
    18    7    9 1
    19    7   10 1
    20    9   33 1
    21    9   34 1
    22   10   11 am
    23   10   35 1
    24   11   12 2
    25   11   13 am
    26   13   18 1
    27   13   14 1
    28   14   15 1
    29   14   36 1
    30   14   37 1
    31   15   16 1
    32   15   17 1
    33   15   23 1
    34   17   18 1
    35   17   38 1
    36   17   39 1
    37   18   19 1
    38   18   20 1
    39   20   21 2
    40   20   22 1
    41   23   40 1
@<TRIPOS>MOLECULE
ZINC48896341
   35    36     0     0     0
SMALL
USER_CHARGES

@<TRIPOS>ATOM
      1 C1         -0.0167    1.3821    0.0096 C.ar      1 <0>        -0.0279
      2 C2          1.1628    2.0977    0.0022 C.ar      1 <0>        -0.1677
      3 C3          2.3817    1.4309   -0.0134 C.ar      1 <0>         0.2561
      4 C4          2.4047    0.0255   -0.0211 C.ar      1 <0>        -0.1649
      5 C5          1.1993   -0.6842   -0.0130 C.ar      1 <0>         0.0231
      6 C6          0.0021   -0.0041    0.0020 C.ar      1 <0>        -0.6961
      7 S1         -1.5147   -0.9007    0.0122 S.o2      1 <0>         2.7026
      8 O1         -1.2252   -2.1824    0.5533 O.2       1 <0>        -0.9643
      9 O2         -2.4925   -0.0383    0.5774 O.2       1 <0>        -0.9724
     10 N1         -1.9518   -1.1414   -1.5668 N.pl3     1 <0>        -1.2497
     11 C7          3.6871   -0.6937   -0.0382 C.2       1 <0>         0.5207
     12 O3          3.7023   -1.9172   -0.0448 O.co2     1 <0>        -0.6885
     13 O4          4.7390   -0.0688   -0.0457 O.co2     1 <0>        -0.6623
     14 N2          3.5691    2.1480   -0.0218 N.pl3     1 <0>        -0.6409
     15 C8          4.1622    2.5275   -1.3146 C.3       1 <0>         0.1491
     16 C9          4.7103    3.9735   -1.4159 C.3       1 <0>        -0.1343
     17 C10         3.7969    5.0019   -0.8269 C.3       1 <0>        -0.0671
     18 S2          4.1590    5.2168    0.9549 S.3       1 <0>        -0.2479
     19 C11         3.5157    3.7899    1.7341 C.3       1 <0>        -0.1431
     20 C12         4.1729    2.4989    1.2245 C.3       1 <0>         0.1715
     21 H1         -0.9613    1.9055    0.0260 H         1 <0>         0.1334
     22 H2          1.1387    3.1774    0.0082 H         1 <0>         0.1220
     23 H3          1.2076   -1.7642   -0.0192 H         1 <0>         0.1457
     24 H4         -2.4622   -1.9283   -1.8142 H         1 <0>         0.4178
     25 H5         -1.6974   -0.4955   -2.2443 H         1 <0>         0.4159
     26 H6          4.9796    1.8389   -1.5284 H         1 <0>         0.0658
     27 H7          3.4045    2.3967   -2.0872 H         1 <0>         0.0498
     28 H8          5.6684    4.0205   -0.8983 H         1 <0>         0.0757
     29 H9          4.8727    4.2121   -2.4670 H         1 <0>         0.0763
     30 H10         3.9413    5.9515   -1.3423 H         1 <0>         0.0972
     31 H11         2.7628    4.6797   -0.9495 H         1 <0>         0.0789
     32 H12         3.6795    3.8704    2.8087 H         1 <0>         0.1022
     33 H13         2.4435    3.7377    1.5452 H         1 <0>         0.0787
     34 H14         4.0137    1.6999    1.9486 H         1 <0>         0.0650
     35 H15         5.2415    2.6610    1.0832 H         1 <0>         0.0795
@<TRIPOS>BOND
     1    1    6 ar
     2    1    2 ar
     3    1   21 1
     4    2    3 ar
     5    2   22 1
     6    3    4 ar
     7    3   14 1
     8    4    5 ar
     9    4   11 1
    10    5    6 ar
    11    5   23 1
    12    6    7 1
    13    7    8 2
    14    7    9 2
    15    7   10 1
    16   10   24 1
    17   10   25 1
    18   11   12 2
    19   11   13 1
    20   14   20 1
    21   14   15 1
    22   15   16 1
    23   15   26 1
    24   15   27 1
    25   16   17 1
    26   16   28 1
    27   16   29 1
    28   17   18 1
    29   17   30 1
    30   17   31 1
    31   18   19 1
    32   19   20 1
    33   19   32 1
    34   19   33 1
    35   20   34 1
    36   20   35 1
@<TRIPOS>MOLECULE
ZINC67172965
   16    16     0     0     0
SMALL
USER_CHARGES

@<TRIPOS>ATOM
      1 C1         -0.0162    1.3423    0.0094 C.2       1 <0>         0.0552
      2 C2          1.2760    1.9884    0.0006 C.2       1 <0>        -0.1795
      3 C3          2.3832    1.1625   -0.0145 C.2       1 <0>        -0.1695
      4 S1          1.7398   -0.3870   -0.0166 S.3       1 <0>         0.2726
      5 C4          0.0021   -0.0041    0.0020 C.2       1 <0>        -0.8086
      6 S2         -1.3638   -1.1171    0.0099 S.o2      1 <0>         2.7454
      7 O1         -0.8865   -2.3420    0.5494 O.2       1 <0>        -0.9628
      8 O2         -2.4597   -0.4112    0.5757 O.2       1 <0>        -0.9574
      9 N1         -1.7595   -1.4179   -1.5697 N.pl3     1 <0>        -1.2498
     10 Br1         4.2065    1.6636   -0.0297 Br        1 <0>         0.0638
     11 C5          1.4059    3.4487    0.0067 C.2       1 <0>         0.5278
     12 O3          0.4041    4.1522    0.0196 O.co2     1 <0>        -0.6812
     13 O4          2.5161    3.9645   -0.0011 O.co2     1 <0>        -0.6573
     14 H1         -0.9386    1.9038    0.0256 H         1 <0>         0.1636
     15 H2         -1.2558   -0.9978   -2.2843 H         1 <0>         0.4187
     16 H3         -2.4949   -2.0143   -1.7804 H         1 <0>         0.4190
@<TRIPOS>BOND
     1    1    5 2
     2    1    2 1
     3    1   14 1
     4    2    3 2
     5    2   11 1
     6    3    4 1
     7    3   10 1
     8    4    5 1
     9    5    6 1
    10    6    7 2
    11    6    8 2
    12    6    9 1
    13    9   15 1
    14    9   16 1
    15   11   12 2
    16   11   13 1
@<TRIPOS>MOLECULE
ZINC05687477
   28    30     0     0     0
SMALL
USER_CHARGES

@<TRIPOS>ATOM
      1 C1         -0.0154    1.3739   -0.0071 C.ar      1 <0>        -0.1807
      2 C2          1.1727    2.0903    0.0039 C.ar      1 <0>        -0.0673
      3 C3          2.3866    1.4379    0.0025 C.ar      1 <0>        -0.1883
      4 C4          2.4275    0.0472   -0.0096 C.ar      1 <0>         0.2151
      5 C5          1.2246   -0.6770   -0.0203 C.ar      1 <0>        -0.1908
      6 C6          0.0030   -0.0033   -0.0193 C.ar      1 <0>        -0.0312
      7 C7          1.2808   -2.1507   -0.0332 C.2       1 <0>         0.4339
      8 C8          2.5631   -2.7671   -0.0341 C.2       1 <0>        -0.4906
      9 C9          3.7060   -1.9717   -0.0230 C.2       1 <0>         0.5245
     10 O1          4.9158   -2.5643   -0.0239 O.3       1 <0>        -0.6254
     11 N1          3.6362   -0.6213   -0.0117 N.pl3     1 <0>        -0.6325
     12 H1          4.4587   -0.1072   -0.0041 H         1 <0>         0.4038
     13 C10         2.6803   -4.2289   -0.0462 C.2       1 <0>         0.5847
     14 O2          3.7744   -4.7508   -0.1543 O.2       1 <0>        -0.4820
     15 N2          1.5764   -4.9944    0.0623 N.am      1 <0>        -0.6185
     16 C11         1.6952   -6.3750    0.1588 C.2       1 <0>         0.3218
     17 N3          2.7913   -7.1027    0.1669 N.2       1 <0>        -0.5441
     18 C12         2.7362   -8.4181    0.2663 C.2       1 <0>         0.0775
     19 C13         1.5051   -8.9780    0.3588 C.2       1 <0>        -0.2861
     20 S1          0.4724   -7.5226    0.3012 S.3       1 <0>         0.0535
     21 O3          0.2614   -2.8191   -0.0424 O.2       1 <0>        -0.5619
     22 H2         -0.9593    1.8987   -0.0017 H         1 <0>         0.1208
     23 H3          1.1460    3.1699    0.0134 H         1 <0>         0.1219
     24 H4          3.3053    2.0056    0.0105 H         1 <0>         0.1253
     25 H5         -0.9233   -0.5586   -0.0282 H         1 <0>         0.1328
     26 H6          0.6988   -4.5812    0.0731 H         1 <0>         0.4296
     27 H7          3.6320   -9.0213    0.2731 H         1 <0>         0.1655
     28 H8          1.2260  -10.0176    0.4466 H         1 <0>         0.1885
@<TRIPOS>BOND
     1    1    6 ar
     2    1    2 ar
     3    1   22 1
     4    2    3 ar
     5    2   23 1
     6    3    4 ar
     7    3   24 1
     8    4   11 1
     9    4    5 ar
    10    5    6 ar
    11    5    7 1
    12    6   25 1
    13    7    8 1
    14    7   21 2
    15    8    9 2
    16    8   13 1
    17    9   10 1
    18    9   11 1
    19   11   12 1
    20   13   14 2
    21   13   15 am
    22   15   16 1
    23   15   26 1
    24   16   20 1
    25   16   17 2
    26   17   18 1
    27   18   19 2
    28   18   27 1
    29   19   20 1
    30   19   28 1
@<TRIPOS>MOLECULE
ZINC40546215
   29    29     0     0     0
SMALL
USER_CHARGES

@<TRIPOS>ATOM
      1 C1         -0.0115    1.5029    0.0068 C.3       1 <0>        -0.1119
      2 C2          0.0070   -0.0040   -0.0005 C.ar      1 <0>        -0.0775
      3 C3          1.1432   -0.6779   -0.4090 C.ar      1 <0>        -0.0764
      4 C4          1.1637   -2.0598   -0.4168 C.ar      1 <0>        -0.0789
      5 C5          0.0411   -2.7717   -0.0138 C.ar      1 <0>         0.2192
      6 C6         -1.0987   -2.0915    0.3960 C.ar      1 <0>        -0.0769
      7 C7         -1.1103   -0.7095    0.4068 C.ar      1 <0>        -0.0760
      8 Br1        -2.6301   -3.0553    0.9452 Br        1 <0>        -0.0230
      9 N1          0.0581   -4.1719   -0.0209 N.am      1 <0>        -0.7109
     10 C8          0.4717   -4.8464    1.0702 C.2       1 <0>         0.7101
     11 O1          0.7420   -4.2439    2.0911 O.2       1 <0>        -0.5862
     12 N2          0.5856   -6.1887    1.0296 N.am      1 <0>        -0.7045
     13 C9          1.0352   -6.9219    2.2156 C.3       1 <0>         0.0893
     14 H1          0.6545   -6.4317    3.1117 H         1 <0>         0.0815
     15 C10         2.5645   -6.9399    2.2548 C.3       1 <0>        -0.1384
     16 C11         0.5174   -8.3360    2.1582 C.2       1 <0>         0.4965
     17 O2         -0.0053   -8.7528    1.1387 O.co2     1 <0>        -0.6918
     18 O3          0.6212   -9.0631    3.1313 O.co2     1 <0>        -0.6876
     19 Br2         2.7179   -2.9803   -0.9763 Br        1 <0>        -0.0265
     20 H2          0.3361    1.8659    0.9740 H         1 <0>         0.0764
     21 H3          0.6440    1.8781   -0.7791 H         1 <0>         0.0713
     22 H4         -1.0281    1.8546   -0.1693 H         1 <0>         0.0714
     23 H5          2.0155   -0.1237   -0.7226 H         1 <0>         0.1404
     24 H6         -1.9944   -0.1800    0.7298 H         1 <0>         0.1406
     25 H7         -0.2277   -4.6564   -0.8112 H         1 <0>         0.4087
     26 H8          0.3700   -6.6694    0.2151 H         1 <0>         0.4023
     27 H9          2.8990   -7.4854    3.1372 H         1 <0>         0.0644
     28 H10         2.9452   -7.4301    1.3587 H         1 <0>         0.0470
     29 H11         2.9390   -5.9171    2.2963 H         1 <0>         0.0471
@<TRIPOS>BOND
     1    1    2 1
     2    1   20 1
     3    1   21 1
     4    1   22 1
     5    2    7 ar
     6    2    3 ar
     7    3    4 ar
     8    3   23 1
     9    4    5 ar
    10    4   19 1
    11    5    6 ar
    12    5    9 1
    13    6    7 ar
    14    6    8 1
    15    7   24 1
    16    9   10 am
    17    9   25 1
    18   10   11 2
    19   10   12 am
    20   12   13 1
    21   12   26 1
    22   13   14 1
    23   13   15 1
    24   13   16 1
    25   15   27 1
    26   15   28 1
    27   15   29 1
    28   16   17 2
    29   16   18 1
@<TRIPOS>MOLECULE
ZINC42407012
   40    41     0     0     0
SMALL
USER_CHARGES

@<TRIPOS>ATOM
      1 C1          0.6781    1.0490    0.7482 C.3       1 <0>        -0.1151
      2 C2          2.2058    1.1364    0.7220 C.3       1 <0>        -0.1398
      3 C3          2.6905    1.1004   -0.7307 C.3       1 <0>         0.1004
      4 N1          2.1433   -0.0975   -1.3823 N.am      1 <0>        -0.6312
      5 C4          0.6926   -0.3257   -1.3373 C.3       1 <0>         0.1519
      6 H1          0.1828    0.4492   -1.9099 H         1 <0>         0.0790
      7 C5          0.2302   -0.2737    0.1223 C.3       1 <0>        -0.1231
      8 C6          0.3754   -1.6776   -1.9229 C.2       1 <0>         0.5268
      9 O1          0.6669   -2.6855   -1.3145 O.2       1 <0>        -0.5018
     10 N2         -0.2321   -1.7666   -3.1227 N.am      1 <0>        -0.8586
     11 C7          2.9566   -0.9700   -2.0097 C.2       1 <0>         0.6990
     12 O2          2.6065   -2.1241   -2.1645 O.2       1 <0>        -0.5477
     13 N3          4.1580   -0.5634   -2.4655 N.am      1 <0>        -0.6195
     14 C8          4.5072    0.8636   -2.4855 C.3       1 <0>         0.0857
     15 C9          4.9552    1.2418   -3.9008 C.3       1 <0>        -0.1355
     16 C10         6.0885    0.3112   -4.3385 C.3       1 <0>        -0.0907
     17 C11         5.5844   -1.1337   -4.3613 C.3       1 <0>        -0.1641
     18 H2          4.7384   -1.2131   -5.0439 H         1 <0>         0.0637
     19 C12         5.1457   -1.5392   -2.9460 C.3       1 <0>         0.1533
     20 C13         6.6915   -2.0453   -4.8243 C.2       1 <0>         0.4983
     21 O3          7.7829   -1.5828   -5.1097 O.co2     1 <0>        -0.6954
     22 O4          6.4958   -3.2454   -4.9134 O.co2     1 <0>        -0.6958
     23 H3          0.3291    1.0992    1.7796 H         1 <0>         0.0679
     24 H4          0.2571    1.8797    0.1818 H         1 <0>         0.0639
     25 H5          2.5250    2.0681    1.1891 H         1 <0>         0.0755
     26 H6          2.6278    0.2922    1.2674 H         1 <0>         0.0694
     27 H7          2.3437    1.9915   -1.2538 H         1 <0>         0.0687
     28 H8          3.7796    1.0624   -0.7517 H         1 <0>         0.1030
     29 H9          0.6709   -1.1046    0.6733 H         1 <0>         0.0822
     30 H10        -0.8566   -0.3456    0.1624 H         1 <0>         0.0738
     31 H11        -0.4652   -0.9605   -3.6092 H         1 <0>         0.3932
     32 H12        -0.4362   -2.6368   -3.4996 H         1 <0>         0.4013
     33 H13         3.6361    1.4569   -2.2072 H         1 <0>         0.0969
     34 H14         5.3191    1.0510   -1.7829 H         1 <0>         0.0647
     35 H15         4.1150    1.1400   -4.5877 H         1 <0>         0.0586
     36 H16         5.3081    2.2730   -3.9073 H         1 <0>         0.0665
     37 H17         6.4258    0.5939   -5.3357 H         1 <0>         0.0621
     38 H18         6.9187    0.3951   -3.6372 H         1 <0>         0.0604
     39 H19         6.0087   -1.5437   -2.2802 H         1 <0>         0.0574
     40 H20         4.6961   -2.5318   -2.9717 H         1 <0>         0.0946
@<TRIPOS>BOND
     1    1    7 1
     2    1    2 1
     3    1   23 1
     4    1   24 1
     5    2    3 1
     6    2   25 1
     7    2   26 1
     8    3    4 1
     9    3   27 1
    10    3   28 1
    11    4    5 1
    12    4   11 am
    13    5    6 1
    14    5    7 1
    15    5    8 1
    16    7   29 1
    17    7   30 1
    18    8    9 2
    19    8   10 am
    20   10   31 1
    21   10   32 1
    22   11   12 2
    23   11   13 am
    24   13   19 1
    25   13   14 1
    26   14   15 1
    27   14   33 1
    28   14   34 1
    29   15   16 1
    30   15   35 1
    31   15   36 1
    32   16   17 1
    33   16   37 1
    34   16   38 1
    35   17   18 1
    36   17   19 1
    37   17   20 1
    38   19   39 1
    39   19   40 1
    40   20   21 2
    41   20   22 1
@<TRIPOS>MOLECULE
ZINC51336441
   56    59     0     0     0
SMALL
USER_CHARGES

@<TRIPOS>ATOM
      1 C1          0.1388    1.5592    0.0683 C.3       1 <0>        -0.1368
      2 C2          0.0825    0.0049    0.0637 C.3       1 <0>        -0.0245
      3 C3          0.7714   -0.4158   -1.2076 C.3       1 <0>        -0.1171
      4 C4          1.3030   -1.8475   -1.1791 C.3       1 <0>        -0.1073
      5 C5          2.2761   -1.9541   -0.0020 C.3       1 <0>        -0.0350
      6 H1          2.9933   -1.1247   -0.0632 H         1 <0>         0.0595
      7 C6          1.4621   -1.7981    1.2815 C.3       1 <0>        -0.0971
      8 H2          2.1576   -1.8552    2.1359 H         1 <0>         0.0609
      9 C7          0.7761   -0.4415    1.3555 C.3       1 <0>         0.1559
     10 C8         -0.3777   -0.5448    2.3913 C.3       1 <0>        -0.1511
     11 C9         -1.6090   -0.9664    1.5661 C.3       1 <0>        -0.1227
     12 C10        -1.3961   -0.3579    0.1658 C.3       1 <0>        -0.0276
     13 H3         -1.9938    0.5675    0.0952 H         1 <0>         0.0940
     14 C11        -1.8638   -1.3123   -0.9025 C.2       1 <0>        -0.0678
     15 C12        -2.0826   -2.6178   -0.7597 C.2       1 <0>        -0.2327
     16 C13        -2.5286   -3.1705   -2.0423 C.2       1 <0>         0.5009
     17 O1         -2.8104   -4.3359   -2.2411 O.2       1 <0>        -0.4576
     18 O2         -2.5799   -2.1935   -2.9663 O.3       1 <0>        -0.3205
     19 C14        -2.1807   -0.9704   -2.3392 C.3       1 <0>         0.0582
     20 O3          1.7291    0.5654    1.7753 O.3       1 <0>        -0.5542
     21 C15         0.4806   -2.9582    1.4098 C.3       1 <0>        -0.1164
     22 C16         1.2669   -4.2701    1.4895 C.3       1 <0>        -0.1453
     23 C17         2.1157   -4.4647    0.2376 C.3       1 <0>         0.1628
     24 C18         3.0353   -3.2719   -0.0085 C.3       1 <0>        -0.1086
     25 C19         4.1230   -3.2437    1.0777 C.3       1 <0>        -0.1204
     26 C20         3.7344   -3.4628   -1.3372 C.2       1 <0>         0.5059
     27 O4          4.8939   -3.1108   -1.4720 O.co2     1 <0>        -0.7109
     28 O5          3.1381   -3.9686   -2.2727 O.co2     1 <0>        -0.6643
     29 C21         2.9831   -5.7209    0.4225 C.3       1 <0>        -0.1791
     30 O6          1.2680   -4.6697   -0.8949 O.3       1 <0>        -0.5094
     31 H4          1.1786    1.8851    0.0920 H         1 <0>         0.0701
     32 H5         -0.3419    1.9429   -0.8316 H         1 <0>         0.0459
     33 H6         -0.3811    1.9390    0.9479 H         1 <0>         0.0505
     34 H7          0.1320   -0.2695   -2.0724 H         1 <0>         0.0583
     35 H8          1.6404    0.2517   -1.3502 H         1 <0>         0.0589
     36 H9          0.4839   -2.5507   -1.0575 H         1 <0>         0.0793
     37 H10         1.8060   -2.0447   -2.1262 H         1 <0>         0.0771
     38 H11        -0.1493   -1.2803    3.1614 H         1 <0>         0.0745
     39 H12        -0.5532    0.4281    2.8616 H         1 <0>         0.0703
     40 H13        -1.6857   -2.0483    1.5037 H         1 <0>         0.0809
     41 H14        -2.5171   -0.5561    2.0135 H         1 <0>         0.0692
     42 H15        -1.9524   -3.1791    0.1537 H         1 <0>         0.1672
     43 H16        -2.9923   -0.2439   -2.3807 H         1 <0>         0.1142
     44 H17        -1.2948   -0.5710   -2.8330 H         1 <0>         0.1226
     45 H18         2.2030    0.3436    2.5885 H         1 <0>         0.3699
     46 H19        -0.1056   -2.8540    2.3247 H         1 <0>         0.0558
     47 H20        -0.1883   -2.9914    0.5553 H         1 <0>         0.0816
     48 H21         1.8985   -4.2612    2.3770 H         1 <0>         0.0614
     49 H22         0.5587   -5.1005    1.5763 H         1 <0>         0.0534
     50 H23         3.6589   -3.0972    2.0530 H         1 <0>         0.0297
     51 H24         4.6665   -4.1886    1.0723 H         1 <0>         0.0496
     52 H25         4.8148   -2.4255    0.8779 H         1 <0>         0.0586
     53 H26         2.3398   -6.5878    0.5727 H         1 <0>         0.0416
     54 H27         3.5963   -5.8730   -0.4658 H         1 <0>         0.0690
     55 H28         3.6283   -5.5922    1.2916 H         1 <0>         0.0551
     56 H29         0.6927   -5.4434   -0.8207 H         1 <0>         0.3436
@<TRIPOS>BOND
     1    1    2 1
     2    1   31 1
     3    1   32 1
     4    1   33 1
     5    2    9 1
     6    2   12 1
     7    2    3 1
     8    3    4 1
     9    3   34 1
    10    3   35 1
    11    4    5 1
    12    4   36 1
    13    4   37 1
    14    5    6 1
    15    5   24 1
    16    5    7 1
    17    7    8 1
    18    7    9 1
    19    7   21 1
    20    9   10 1
    21    9   20 1
    22   10   11 1
    23   10   38 1
    24   10   39 1
    25   11   12 1
    26   11   40 1
    27   11   41 1
    28   12   13 1
    29   12   14 1
    30   14   19 1
    31   14   15 2
    32   15   16 1
    33   15   42 1
    34   16   17 2
    35   16   18 1
    36   18   19 1
    37   19   43 1
    38   19   44 1
    39   20   45 1
    40   21   22 1
    41   21   46 1
    42   21   47 1
    43   22   23 1
    44   22   48 1
    45   22   49 1
    46   23   24 1
    47   23   29 1
    48   23   30 1
    49   24   25 1
    50   24   26 1
    51   25   50 1
    52   25   51 1
    53   25   52 1
    54   26   27 2
    55   26   28 1
    56   29   53 1
    57   29   54 1
    58   29   55 1
    59   30   56 1
@<TRIPOS>MOLECULE
ZINC65344734
   24    25     0     0     0
SMALL
USER_CHARGES

@<TRIPOS>ATOM
      1 C1         -0.0168    1.3907    0.0097 C.ar      1 <0>        -0.0734
      2 C2          1.1815    2.0977    0.0020 C.ar      1 <0>        -0.0237
      3 C3          2.3947    1.4104   -0.0132 C.ar      1 <0>        -0.1296
      4 C4          2.4101    0.0267   -0.0208 C.ar      1 <0>         0.0769
      5 C5          1.2239   -0.6827   -0.0133 C.ar      1 <0>        -0.1079
      6 C6          0.0021   -0.0041    0.0020 C.ar      1 <0>        -0.1065
      7 C7         -1.2646   -0.7611    0.0105 C.2       1 <0>         0.5222
      8 O1         -2.3327   -0.1657    0.0243 O.co2     1 <0>        -0.6812
      9 O2         -1.2462   -1.9839    0.0038 O.co2     1 <0>        -0.6801
     10 F1          3.5889   -0.6332   -0.0361 F         1 <0>        -0.1475
     11 C8          1.1685    3.5807    0.0096 C.2       1 <0>        -0.1961
     12 C9          0.6829    4.2698    1.0810 C.2       1 <0>         0.1678
     13 N1          0.6846    5.6352    1.0588 N.am      1 <0>        -0.6337
     14 C10         1.1551    6.3166    0.0015 C.2       1 <0>         0.6999
     15 N2          1.6463    5.6922   -1.0833 N.am      1 <0>        -0.6570
     16 C11         1.6842    4.3441   -1.1344 C.2       1 <0>         0.5523
     17 O3          2.1323    3.7722   -2.1111 O.2       1 <0>        -0.4901
     18 O4          1.1359    7.5321    0.0257 O.2       1 <0>        -0.5501
     19 H1         -0.9582    1.9199    0.0260 H         1 <0>         0.1355
     20 H2          3.3248    1.9594   -0.0195 H         1 <0>         0.1254
     21 H3          1.2411   -1.7626   -0.0193 H         1 <0>         0.1408
     22 H4          0.2995    3.7400    1.9405 H         1 <0>         0.1872
     23 H5          0.3385    6.1231    1.8224 H         1 <0>         0.4376
     24 H6          1.9787    6.2132   -1.8309 H         1 <0>         0.4311
@<TRIPOS>BOND
     1    1    6 ar
     2    1    2 ar
     3    1   19 1
     4    2    3 ar
     5    2   11 1
     6    3    4 ar
     7    3   20 1
     8    4    5 ar
     9    4   10 1
    10    5    6 ar
    11    5   21 1
    12    6    7 1
    13    7    8 2
    14    7    9 1
    15   11   16 1
    16   11   12 2
    17   12   22 1
    18   12   13 1
    19   13   14 am
    20   13   23 1
    21   14   18 2
    22   14   15 am
    23   15   24 1
    24   15   16 am
    25   16   17 2
@<TRIPOS>MOLECULE
ZINC03852188
   30    32     0     0     0
SMALL
USER_CHARGES
(3R)-3-hydroxy-3-[(1R)-2-oxocyclopentyl]indolin-2-one
@<TRIPOS>ATOM
      1 C1         -0.4973    5.8788    0.0368 C.ar      1 <0>        -0.1370
      2 C2          0.8810    5.7653    0.0230 C.ar      1 <0>        -0.0722
      3 C3          1.4784    4.5221    0.0116 C.ar      1 <0>        -0.1368
      4 C4          0.6951    3.3694    0.0130 C.ar      1 <0>         0.1474
      5 C5         -0.6880    3.4966    0.0266 C.ar      1 <0>        -0.1789
      6 C6         -1.2818    4.7387    0.0388 C.ar      1 <0>        -0.0346
      7 C7         -1.2443    2.0913    0.0185 C.3       1 <0>         0.1688
      8 C8         -0.0144    1.2087    0.0087 C.2       1 <0>         0.5006
      9 O1          0.0021   -0.0041    0.0020 O.2       1 <0>        -0.4691
     10 N1          1.0556    2.0215    0.0028 N.am      1 <0>        -0.6586
     11 C9         -2.0750    1.8393    1.2785 C.3       1 <0>        -0.1165
     12 H1         -2.9098    2.3887    1.2428 H         1 <0>         0.1108
     13 C10        -2.4258    0.3409    1.3877 C.3       1 <0>        -0.1362
     14 C11        -2.3315    0.0503    2.9071 C.3       1 <0>        -0.1210
     15 C12        -1.1289    0.9264    3.3375 C.3       1 <0>        -0.1761
     16 C13        -1.2673    2.1920    2.5101 C.2       1 <0>         0.3667
     17 O2         -0.8170    3.2786    2.7836 O.2       1 <0>        -0.4147
     18 O3         -2.0303    1.8680   -1.1538 O.3       1 <0>        -0.5152
     19 H2         -0.9602    6.8545    0.0457 H         1 <0>         0.1329
     20 H3          1.4930    6.6552    0.0214 H         1 <0>         0.1341
     21 H4          2.5554    4.4418    0.0011 H         1 <0>         0.1286
     22 H5         -2.3584    4.8232    0.0493 H         1 <0>         0.1294
     23 H6          1.9732    1.7073   -0.0078 H         1 <0>         0.4168
     24 H7         -3.4369    0.1569    1.0246 H         1 <0>         0.0841
     25 H8         -1.7043   -0.2625    0.8369 H         1 <0>         0.1077
     26 H9         -2.1268   -1.0049    3.0880 H         1 <0>         0.0841
     27 H10        -3.2410    0.3607    3.4215 H         1 <0>         0.0762
     28 H11        -0.2767    0.4382    3.1494 H         1 <0>         0.0949
     29 H12        -1.1881    1.1584    4.4009 H         1 <0>         0.0956
     30 H13        -1.5611    2.0428   -1.9811 H         1 <0>         0.3881
@<TRIPOS>BOND
     1    1    6 ar
     2    1    2 ar
     3    1   19 1
     4    2    3 ar
     5    2   20 1
     6    3    4 ar
     7    3   21 1
     8    4   10 1
     9    4    5 ar
    10    5    6 ar
    11    5    7 1
    12    6   22 1
    13    7    8 1
    14    7   11 1
    15    7   18 1
    16    8    9 2
    17    8   10 am
    18   10   23 1
    19   11   12 1
    20   11   16 1
    21   11   13 1
    22   13   14 1
    23   13   24 1
    24   13   25 1
    25   14   15 1
    26   14   26 1
    27   14   27 1
    28   15   16 1
    29   15   28 1
    30   15   29 1
    31   16   17 2
    32   18   30 1
@<TRIPOS>MOLECULE
ZINC34382083
   25    26     0     0     0
SMALL
USER_CHARGES

@<TRIPOS>ATOM
      1 C1         -0.0162    1.3443    0.0094 C.2       1 <0>        -0.1835
      2 C2          1.3223    1.7856   -0.0010 C.2       1 <0>        -0.1835
      3 C3          2.1094    0.6908   -0.0144 C.2       1 <0>        -0.0190
      4 N1          1.3051   -0.4129   -0.0126 N.pl3     1 <0>        -0.4023
      5 C4          0.0021   -0.0041    0.0020 C.2       1 <0>        -0.0184
      6 C5          1.7440   -1.7444   -0.0244 C.ar      1 <0>         0.1270
      7 C6          3.1030   -2.0288   -0.0335 C.ar      1 <0>        -0.0848
      8 C7          3.5324   -3.3413   -0.0446 C.ar      1 <0>        -0.1066
      9 C8          2.6102   -4.3719   -0.0471 C.ar      1 <0>        -0.0370
     10 C9          1.2563   -4.0919   -0.0384 C.ar      1 <0>        -0.6489
     11 C10         0.8209   -2.7810   -0.0211 C.ar      1 <0>        -0.0418
     12 S1          0.0852   -5.4084   -0.0422 S.o2      1 <0>         2.7040
     13 O1         -1.1178   -4.8802   -0.5833 O.2       1 <0>        -0.9581
     14 O2          0.7430   -6.5355   -0.6044 O.2       1 <0>        -0.9537
     15 N2         -0.2325   -5.7856    1.5387 N.pl3     1 <0>        -1.2464
     16 H1         -0.8955    1.9712    0.0252 H         1 <0>         0.1448
     17 H2          1.6563    2.8127    0.0010 H         1 <0>         0.1442
     18 H3          3.1893    0.6873   -0.0250 H         1 <0>         0.1663
     19 H4         -0.8641   -0.6492    0.0071 H         1 <0>         0.1684
     20 H5          3.8236   -1.2243   -0.0324 H         1 <0>         0.1411
     21 H6          4.5893   -3.5631   -0.0518 H         1 <0>         0.1461
     22 H7          2.9483   -5.3976   -0.0561 H         1 <0>         0.1505
     23 H8         -0.2368   -2.5628   -0.0094 H         1 <0>         0.1498
     24 H9         -1.1023   -6.1346    1.7887 H         1 <0>         0.4238
     25 H10         0.4513   -5.6575    2.2147 H         1 <0>         0.4181
@<TRIPOS>BOND
     1    1    5 2
     2    1    2 1
     3    1   16 1
     4    2    3 2
     5    2   17 1
     6    3    4 1
     7    3   18 1
     8    4    5 1
     9    4    6 1
    10    5   19 1
    11    6   11 ar
    12    6    7 ar
    13    7    8 ar
    14    7   20 1
    15    8    9 ar
    16    8   21 1
    17    9   10 ar
    18    9   22 1
    19   10   11 ar
    20   10   12 1
    21   11   23 1
    22   12   13 2
    23   12   14 2
    24   12   15 1
    25   15   24 1
    26   15   25 1
@<TRIPOS>MOLECULE
ZINC39511479
   33    34     0     0     0
SMALL
USER_CHARGES

@<TRIPOS>ATOM
      1 C1         -0.0225    1.8097    0.0120 C.3       1 <0>        -0.1228
      2 S1          0.0021   -0.0041    0.0020 S.3       1 <0>        -0.2562
      3 C2          0.9025   -0.4391    1.5155 C.3       1 <0>        -0.0528
      4 H1          1.8711    0.0603    1.5388 H         1 <0>         0.0886
      5 C3          0.0701   -0.0663    2.7676 C.3       1 <0>        -0.1103
      6 C4          0.6442   -1.0100    3.8542 C.3       1 <0>        -0.1032
      7 C5          0.9140   -2.3275    3.1035 C.3       1 <0>         0.1178
      8 C6          1.0808   -1.9688    1.6171 C.3       1 <0>        -0.0742
      9 C7         -0.2708   -3.2744    3.2835 C.3       1 <0>         0.0907
     10 H2         -0.0978   -4.1864    2.7121 H         1 <0>         0.0616
     11 C8         -0.4197   -3.6215    4.7680 C.3       1 <0>        -0.1583
     12 C9          0.8894   -4.2343    5.2734 C.3       1 <0>        -0.1488
     13 C10         2.0343   -3.2452    5.0440 C.3       1 <0>         0.0069
     14 N1          2.1426   -2.9442    3.6101 N.3       1 <0>        -0.3258
     15 O1          2.4798   -4.1455    2.8462 O.3       1 <0>        -0.4282
     16 O2         -1.4638   -2.6395    2.8191 O.3       1 <0>        -0.5525
     17 H3          1.0001    2.1870    0.0043 H         1 <0>         0.0743
     18 H4         -0.5497    2.1708   -0.8711 H         1 <0>         0.1000
     19 H5         -0.5327    2.1613    0.9088 H         1 <0>         0.0755
     20 H6          0.2282    0.9772    3.0398 H         1 <0>         0.0664
     21 H7         -0.9883   -0.2672    2.6016 H         1 <0>         0.0947
     22 H8          1.5712   -0.6053    4.2603 H         1 <0>         0.0765
     23 H9         -0.0857   -1.1660    4.6487 H         1 <0>         0.0781
     24 H10         0.3191   -2.4741    1.0234 H         1 <0>         0.0807
     25 H11         2.0746   -2.2530    1.2709 H         1 <0>         0.0866
     26 H12        -0.6405   -2.7162    5.3335 H         1 <0>         0.0763
     27 H13        -1.2307   -4.3387    4.8949 H         1 <0>         0.0696
     28 H14         0.8028   -4.4496    6.3384 H         1 <0>         0.0742
     29 H15         1.0921   -5.1576    4.7307 H         1 <0>         0.0711
     30 H16         1.8355   -2.3255    5.5942 H         1 <0>         0.0957
     31 H17         2.9686   -3.6835    5.3947 H         1 <0>         0.0883
     32 H18         3.2858   -4.5884    3.1451 H         1 <0>         0.3828
     33 H19        -2.2579   -3.1848    2.9034 H         1 <0>         0.3770
@<TRIPOS>BOND
     1    1    2 1
     2    1   17 1
     3    1   18 1
     4    1   19 1
     5    2    3 1
     6    3    4 1
     7    3    8 1
     8    3    5 1
     9    5    6 1
    10    5   20 1
    11    5   21 1
    12    6    7 1
    13    6   22 1
    14    6   23 1
    15    7   14 1
    16    7    8 1
    17    7    9 1
    18    8   24 1
    19    8   25 1
    20    9   10 1
    21    9   11 1
    22    9   16 1
    23   11   12 1
    24   11   26 1
    25   11   27 1
    26   12   13 1
    27   12   28 1
    28   12   29 1
    29   13   14 1
    30   13   30 1
    31   13   31 1
    32   14   15 1
    33   15   32 1
    34   16   33 1
@<TRIPOS>MOLECULE
ZINC56958583
   28    29     0     0     0
SMALL
USER_CHARGES

@<TRIPOS>ATOM
      1 C1          0.2829    1.7658   -2.1728 C.ar      1 <0>        -0.0663
      2 C2          1.4494    1.9662   -1.4642 C.ar      1 <0>        -0.0800
      3 C3          2.4296    2.8061   -1.9623 C.ar      1 <0>        -0.0592
      4 C4          2.2475    3.4508   -3.1729 C.ar      1 <0>        -0.0937
      5 C5          1.0857    3.2598   -3.8918 C.ar      1 <0>        -0.0718
      6 C6          0.0927    2.4129   -3.3954 C.ar      1 <0>        -0.0220
      7 C7         -1.1154    2.2092   -4.1367 C.1       1 <0>         0.2548
      8 N1         -2.0739    2.0477   -4.7247 N.1       1 <0>        -0.4180
      9 C8          3.7013    3.0201   -1.1824 C.3       1 <0>        -0.0477
     10 H1          4.2630    3.8568   -1.5976 H         1 <0>         0.1071
     11 C9          3.3810    3.2751    0.3061 C.3       1 <0>         0.0000
     12 N2          4.4687    2.5855    1.0466 N.4       1 <0>        -0.5178
     13 C10         4.6847    1.3262    0.2887 C.3       1 <0>         0.0061
     14 C11         4.5602    1.7388   -1.1962 C.3       1 <0>        -0.1839
     15 H2          5.5441    1.9471   -1.6164 H         1 <0>         0.0994
     16 C12         3.8714    0.6553   -1.9853 C.2       1 <0>         0.5064
     17 O1          4.0175    0.5951   -3.1943 O.co2     1 <0>        -0.6585
     18 O2          3.1682   -0.1611   -1.4148 O.co2     1 <0>        -0.6772
     19 H3         -0.4795    1.1065   -1.7850 H         1 <0>         0.1319
     20 H4          1.5977    1.4666   -0.5182 H         1 <0>         0.1323
     21 H5          3.0166    4.1053   -3.5558 H         1 <0>         0.1305
     22 H6          0.9446    3.7642   -4.8363 H         1 <0>         0.1326
     23 H7          3.3937    4.3439    0.5199 H         1 <0>         0.1339
     24 H8          2.4131    2.8461    0.5656 H         1 <0>         0.1360
     25 H9          5.3073    3.1466    1.0451 H         1 <0>         0.4239
     26 H10         5.6791    0.9275    0.4895 H         1 <0>         0.1246
     27 H11         3.9209    0.5922    0.5455 H         1 <0>         0.1502
     28 H12         4.1790    2.3834    1.9917 H         1 <0>         0.4262
@<TRIPOS>BOND
     1    1    6 ar
     2    1    2 ar
     3    1   19 1
     4    2    3 ar
     5    2   20 1
     6    3    4 ar
     7    3    9 1
     8    4    5 ar
     9    4   21 1
    10    5    6 ar
    11    5   22 1
    12    6    7 1
    13    7    8 3
    14    9   10 1
    15    9   14 1
    16    9   11 1
    17   11   12 1
    18   11   23 1
    19   11   24 1
    20   12   13 1
    21   12   25 1
    22   12   28 1
    23   13   14 1
    24   13   26 1
    25   13   27 1
    26   14   15 1
    27   14   16 1
    28   16   17 2
    29   16   18 1
@<TRIPOS>MOLECULE
ZINC66347853
   16    17     0     0     0
SMALL
USER_CHARGES

@<TRIPOS>ATOM
      1 C1         -0.0170    1.4061    0.0098 C.2       1 <0>        -0.1213
      2 C2          1.1538    2.0963    0.0023 C.2       1 <0>        -0.0355
      3 C3          2.3719    1.3894   -0.0131 C.2       1 <0>         0.1775
      4 N1          3.6409    1.7656   -0.0232 N.2       1 <0>        -0.2695
      5 N2          4.3971    0.7246   -0.0361 N.2       1 <0>        -0.2084
      6 C4          3.6699   -0.3641   -0.0350 C.2       1 <0>         0.1136
      7 N3          2.3639    0.0164   -0.0204 N.pl3     1 <0>        -0.3387
      8 C5          1.1822   -0.6703   -0.0128 C.2       1 <0>        -0.0642
      9 C6          0.0021   -0.0041    0.0020 C.2       1 <0>         0.2137
     10 N4         -1.2030   -0.7187    0.0102 N.pl3     1 <0>        -0.8611
     11 Br1         4.3168   -2.1409   -0.0513 Br        1 <0>         0.0890
     12 H1         -0.9583    1.9354    0.0261 H         1 <0>         0.1545
     13 H2          1.1502    3.1762    0.0078 H         1 <0>         0.1684
     14 H3          1.1889   -1.7502   -0.0190 H         1 <0>         0.1668
     15 H4         -2.0485   -0.2435    0.0211 H         1 <0>         0.4094
     16 H5         -1.1917   -1.6886    0.0048 H         1 <0>         0.4058
@<TRIPOS>BOND
     1    1    9 1
     2    1    2 2
     3    1   12 1
     4    2    3 1
     5    2   13 1
     6    3    7 1
     7    3    4 2
     8    4    5 1
     9    5    6 2
    10    6    7 1
    11    6   11 1
    12    7    8 1
    13    8    9 2
    14    8   14 1
    15    9   10 1
    16   10   15 1
    17   10   16 1
@<TRIPOS>MOLECULE
ZINC14671748
   46    48     0     0     0
SMALL
USER_CHARGES
9-amino-10-cyano-7-[(1R)-2-oxocyclohexyl]sulfanyl-8-azaspiro[4.5]deca-6,9-diene-6-carboxamide
@<TRIPOS>ATOM
      1 C1         -0.9908    1.6268    1.5020 C.3       1 <0>        -0.1233
      2 C2         -0.2398    1.0764    0.2884 C.3       1 <0>        -0.1199
      3 C3         -0.9194    1.5642   -0.9954 C.3       1 <0>        -0.1631
      4 C4         -1.0077    3.0736   -0.9491 C.2       1 <0>         0.3404
      5 O1         -0.6116    3.7457   -1.8708 O.2       1 <0>        -0.4116
      6 C5         -1.6046    3.7196    0.2816 C.3       1 <0>        -0.1670
      7 H1         -2.6339    3.3341    0.3260 H         1 <0>         0.1263
      8 C6         -0.9002    3.1536    1.5191 C.3       1 <0>        -0.0985
      9 S1         -1.3582    5.5112    0.2080 S.3       1 <0>         0.0005
     10 C7         -2.3473    5.8986   -1.1978 C.2       1 <0>         0.1592
     11 C8         -2.4450    7.1905   -1.6181 C.2       1 <0>        -0.1992
     12 C9         -3.2830    7.5634   -2.8065 C.3       1 <0>         0.1049
     13 C10        -2.5206    8.5812   -3.6779 C.3       1 <0>        -0.1222
     14 C11        -3.6198    9.5527   -4.1756 C.3       1 <0>        -0.1251
     15 C12        -4.5481    9.6797   -2.9421 C.3       1 <0>        -0.1157
     16 C13        -4.5713    8.2601   -2.3381 C.3       1 <0>        -0.1123
     17 C14        -3.6282    6.3559   -3.6289 C.2       1 <0>        -0.2683
     18 C15        -3.4868    5.0987   -3.1341 C.2       1 <0>         0.5017
     19 N1         -3.0081    4.8933   -1.8626 N.pl3     1 <0>        -0.6556
     20 N2         -3.8212    4.0195   -3.9158 N.pl3     1 <0>        -0.8803
     21 C16        -4.1164    6.5330   -4.9634 C.1       1 <0>         0.2834
     22 N3         -4.5037    6.6736   -6.0220 N.1       1 <0>        -0.4675
     23 C17        -1.7480    8.1927   -0.9267 C.2       1 <0>         0.5844
     24 O2         -2.3391    8.9176   -0.1447 O.2       1 <0>        -0.5378
     25 N4         -0.4250    8.3542   -1.1270 N.am      1 <0>        -0.8703
     26 H2         -0.5420    1.2226    2.4213 H         1 <0>         0.0839
     27 H3         -2.0464    1.3227    1.4449 H         1 <0>         0.0733
     28 H4          0.8014    1.4305    0.3100 H         1 <0>         0.0723
     29 H5         -0.2538   -0.0232    0.3163 H         1 <0>         0.0828
     30 H6         -0.3260    1.2497   -1.8666 H         1 <0>         0.0975
     31 H7         -1.9284    1.1314   -1.0634 H         1 <0>         0.1006
     32 H8         -1.3865    3.5396    2.4271 H         1 <0>         0.0913
     33 H9          0.1567    3.4583    1.5115 H         1 <0>         0.0806
     34 H10        -1.7632    9.0930   -3.0661 H         1 <0>         0.0693
     35 H11        -2.0269    8.0556   -4.5086 H         1 <0>         0.0655
     36 H12        -3.1605   10.5103   -4.4620 H         1 <0>         0.0637
     37 H13        -4.1288    9.1151   -5.0470 H         1 <0>         0.0636
     38 H14        -4.1299   10.4189   -2.2431 H         1 <0>         0.0680
     39 H15        -5.5470   10.0064   -3.2670 H         1 <0>         0.0620
     40 H16        -5.4446    7.6953   -2.6964 H         1 <0>         0.0645
     41 H17        -4.5870    8.3014   -1.2390 H         1 <0>         0.0755
     42 H18        -3.1563    3.9175   -1.3769 H         1 <0>         0.4217
     43 H19        -3.7091    2.9988   -3.5213 H         1 <0>         0.4169
     44 H20        -4.2010    4.1761   -4.9362 H         1 <0>         0.4423
     45 H21         0.1215    9.1400   -0.5849 H         1 <0>         0.4203
     46 H22         0.1083    7.7002   -1.8326 H         1 <0>         0.4214
@<TRIPOS>BOND
     1    1    8 1
     2    1    2 1
     3    1   26 1
     4    1   27 1
     5    2    3 1
     6    2   28 1
     7    2   29 1
     8    3    4 1
     9    3   30 1
    10    3   31 1
    11    4    5 2
    12    4    6 1
    13    6    7 1
    14    6    8 1
    15    6    9 1
    16    8   32 1
    17    8   33 1
    18    9   10 1
    19   10   19 1
    20   10   11 2
    21   11   12 1
    22   11   23 1
    23   12   16 1
    24   12   13 1
    25   12   17 1
    26   13   14 1
    27   13   34 1
    28   13   35 1
    29   14   15 1
    30   14   36 1
    31   14   37 1
    32   15   16 1
    33   15   38 1
    34   15   39 1
    35   16   40 1
    36   16   41 1
    37   17   18 2
    38   17   21 1
    39   18   19 1
    40   18   20 1
    41   19   42 1
    42   20   43 1
    43   20   44 1
    44   21   22 3
    45   23   24 2
    46   23   25 am
    47   25   45 1
    48   25   46 1
@<TRIPOS>MOLECULE
ZINC43199422
   48    49     0     0     0
SMALL
USER_CHARGES

@<TRIPOS>ATOM
      1 C1         -0.0186    1.5216    0.0104 C.3       1 <0>        -0.1865
      2 C2          0.0021   -0.0041    0.0020 C.3       1 <0>         0.1257
      3 H1          0.5301   -0.3109   -0.9272 H         1 <0>         0.1021
      4 C3         -1.3875   -0.6111   -0.0495 C.3       1 <0>        -0.1602
      5 C4         -2.5015    0.3602    0.3155 C.3       1 <0>         0.1448
      6 H2         -2.5394    1.1669   -0.4311 H         1 <0>         0.0516
      7 C5         -3.8290   -0.3512    0.2566 C.2       1 <0>        -0.1809
      8 C6         -4.3653   -1.0096    1.2388 C.2       1 <0>        -0.1548
      9 C7         -3.7473   -1.1753    2.5984 C.3       1 <0>         0.1201
     10 H3         -2.6934   -0.9258    2.5759 H         1 <0>         0.1208
     11 C8         -4.4767   -0.2857    3.6069 C.3       1 <0>         0.1352
     12 H4         -5.4678   -0.7075    3.8001 H         1 <0>         0.0675
     13 C9         -3.6960   -0.2285    4.9190 C.3       1 <0>        -0.1995
     14 C10        -2.2728    0.1945    4.6671 C.2       1 <0>         0.3792
     15 O1         -2.0336    1.3086    4.2643 O.2       1 <0>        -0.4273
     16 C11        -1.1417   -0.7663    4.9316 C.3       1 <0>        -0.1613
     17 C12         0.1757   -0.0640    4.7335 C.ar      1 <0>         0.0398
     18 C13         0.8037   -0.0052    3.4856 C.ar      1 <0>        -0.1556
     19 C14         2.0218    0.6864    3.3590 C.ar      1 <0>         0.1912
     20 C15         2.6040    1.2787    4.4669 C.ar      1 <0>        -0.1812
     21 C16         1.9835    1.1966    5.7027 C.ar      1 <0>         0.1760
     22 C17         0.7699    0.5284    5.8299 C.ar      1 <0>        -0.0901
     23 Cl1        -0.0057    0.4369    7.3810 Cl        1 <0>        -0.0430
     24 O2          2.5611    1.7659    6.7908 O.3       1 <0>        -0.4809
     25 O3          2.6413    0.7784    2.1554 O.3       1 <0>        -0.4725
     26 C18         0.2315   -0.6767    2.3058 C.2       1 <0>         0.5560
     27 O4         -0.7203   -1.4207    2.4329 O.2       1 <0>        -0.4731
     28 O5          0.7690   -0.4980    1.0905 O.3       1 <0>        -0.3651
     29 O6         -4.6302    1.0307    3.0757 O.3       1 <0>        -0.5525
     30 O7         -3.8846   -2.5432    3.0085 O.3       1 <0>        -0.5660
     31 O8         -2.3046    0.9336    1.6020 O.3       1 <0>        -0.5461
     32 H5          1.0040    1.8989    0.0027 H         1 <0>         0.0621
     33 H6         -0.5458    1.8827   -0.8727 H         1 <0>         0.0735
     34 H7         -0.5288    1.8731    0.9072 H         1 <0>         0.0841
     35 H8         -1.5707   -0.9646   -1.0811 H         1 <0>         0.0834
     36 H9         -1.4431   -1.4969    0.5869 H         1 <0>         0.1069
     37 H10        -4.3804   -0.3101   -0.6874 H         1 <0>         0.1064
     38 H11        -5.3370   -1.4827    1.0623 H         1 <0>         0.1041
     39 H12        -4.1710    0.4924    5.5901 H         1 <0>         0.0977
     40 H13        -3.7045   -1.2111    5.3930 H         1 <0>         0.1005
     41 H14        -1.2094   -1.1052    5.9724 H         1 <0>         0.1088
     42 H15        -1.2235   -1.6348    4.2907 H         1 <0>         0.1448
     43 H16         3.5429    1.8030    4.3672 H         1 <0>         0.1541
     44 H17         2.2984    2.6844    6.9403 H         1 <0>         0.4018
     45 H18         2.3795    1.5511    1.6364 H         1 <0>         0.3981
     46 H19        -5.0861    1.6435    3.6688 H         1 <0>         0.3855
     47 H20        -3.4566   -3.1763    2.4161 H         1 <0>         0.3860
     48 H21        -2.9959    1.5565    1.8649 H         1 <0>         0.3886
@<TRIPOS>BOND
     1    1    2 1
     2    1   32 1
     3    1   33 1
     4    1   34 1
     5    2    3 1
     6    2   28 1
     7    2    4 1
     8    4    5 1
     9    4   35 1
    10    4   36 1
    11    5    6 1
    12    5    7 1
    13    5   31 1
    14    7    8 2
    15    7   37 1
    16    8    9 1
    17    8   38 1
    18    9   10 1
    19    9   11 1
    20    9   30 1
    21   11   12 1
    22   11   13 1
    23   11   29 1
    24   13   14 1
    25   13   39 1
    26   13   40 1
    27   14   15 2
    28   14   16 1
    29   16   17 1
    30   16   41 1
    31   16   42 1
    32   17   22 ar
    33   17   18 ar
    34   18   19 ar
    35   18   26 1
    36   19   20 ar
    37   19   25 1
    38   20   21 ar
    39   20   43 1
    40   21   22 ar
    41   21   24 1
    42   22   23 1
    43   24   44 1
    44   25   45 1
    45   26   27 2
    46   26   28 1
    47   29   46 1
    48   30   47 1
    49   31   48 1
@<TRIPOS>MOLECULE
ZINC20566401
   49    52     0     0     0
SMALL
USER_CHARGES

@<TRIPOS>ATOM
      1 C1         -0.0187    1.5258    0.0104 C.3       1 <0>        -0.1634
      2 C2          0.0021   -0.0041    0.0020 C.3       1 <0>         0.1516
      3 C3          0.7421   -0.5109    1.2415 C.3       1 <0>        -0.1677
      4 C4         -1.4333   -0.5336    0.0129 C.3       1 <0>        -0.1454
      5 N1          0.6878   -0.4765   -1.2033 N.am      1 <0>        -0.5631
      6 C5          0.0910   -1.2467   -2.1204 C.2       1 <0>         0.5312
      7 O1         -1.0545   -1.6397   -2.0670 O.2       1 <0>        -0.4640
      8 C6          1.0674   -1.5499   -3.2338 C.3       1 <0>        -0.1578
      9 H1          0.7088   -1.2183   -4.2083 H         1 <0>         0.1487
     10 C7          1.4173   -3.0528   -3.2106 C.3       1 <0>         0.1018
     11 H2          1.7216   -3.3866   -4.2026 H         1 <0>         0.1331
     12 N2          2.5518   -3.1663   -2.2560 N.3       1 <0>        -0.6070
     13 C8          3.3654   -1.9647   -2.5191 C.3       1 <0>         0.1277
     14 C9          2.3621   -0.8155   -2.7861 C.3       1 <0>        -0.1343
     15 H3          2.7187   -0.0979   -3.5250 H         1 <0>         0.1438
     16 C10         1.9601   -0.1684   -1.4797 C.2       1 <0>         0.5312
     17 O2          2.6797    0.5203   -0.7888 O.2       1 <0>        -0.4452
     18 C11         4.2758   -1.6518   -1.3661 C.ar      1 <0>        -0.1531
     19 C12         4.0590   -1.3655   -0.0368 C.ar      1 <0>        -0.0336
     20 C13         5.1308   -1.1156    0.8017 C.ar      1 <0>        -0.1387
     21 C14         6.4196   -1.1534    0.3016 C.ar      1 <0>        -0.0697
     22 C15         6.6415   -1.4382   -1.0295 C.ar      1 <0>        -0.1422
     23 C16         5.5684   -1.6906   -1.8808 C.ar      1 <0>         0.1638
     24 N3          5.5369   -1.9951   -3.2434 N.am      1 <0>        -0.6581
     25 C17         4.2804   -2.1704   -3.6957 C.2       1 <0>         0.5619
     26 O3          3.9505   -2.4416   -4.8309 O.2       1 <0>        -0.4755
     27 C18         0.2211   -3.8702   -2.7188 C.3       1 <0>        -0.1456
     28 C19         0.5410   -5.3394   -2.8199 C.2       1 <0>         0.5148
     29 O4          1.6195   -5.6974   -3.2437 O.2       1 <0>        -0.5170
     30 N4         -0.3715   -6.2555   -2.4395 N.am      1 <0>        -0.8595
     31 H4          1.0039    1.9031    0.0027 H         1 <0>         0.0747
     32 H5         -0.5459    1.8868   -0.8726 H         1 <0>         0.0601
     33 H6         -0.5289    1.8773    0.9072 H         1 <0>         0.0776
     34 H7          0.2319   -0.1594    2.1383 H         1 <0>         0.0801
     35 H8          0.7568   -1.6008    1.2356 H         1 <0>         0.0601
     36 H9          1.7647   -0.1336    1.2338 H         1 <0>         0.0764
     37 H10        -1.9605   -0.1726   -0.8702 H         1 <0>         0.0729
     38 H11        -1.4185   -1.6235    0.0069 H         1 <0>         0.0710
     39 H12        -1.9435   -0.1821    0.9097 H         1 <0>         0.0672
     40 H13         2.2221   -3.1781   -1.3024 H         1 <0>         0.3440
     41 H14         3.0517   -1.3357    0.3515 H         1 <0>         0.1195
     42 H15         4.9612   -0.8911    1.8444 H         1 <0>         0.1302
     43 H16         7.2562   -0.9593    0.9564 H         1 <0>         0.1336
     44 H17         7.6507   -1.4654   -1.4131 H         1 <0>         0.1295
     45 H18         6.3279   -2.0713   -3.7995 H         1 <0>         0.4187
     46 H19         0.0090   -3.6152   -1.6805 H         1 <0>         0.0940
     47 H20        -0.6503   -3.6449   -3.3335 H         1 <0>         0.1187
     48 H21        -1.2341   -5.9691   -2.1006 H         1 <0>         0.4006
     49 H22        -0.1656   -7.2012   -2.5047 H         1 <0>         0.4024
@<TRIPOS>BOND
     1    1    2 1
     2    1   31 1
     3    1   32 1
     4    1   33 1
     5    2    3 1
     6    2    4 1
     7    2    5 1
     8    3   34 1
     9    3   35 1
    10    3   36 1
    11    4   37 1
    12    4   38 1
    13    4   39 1
    14    5   16 am
    15    5    6 am
    16    6    7 2
    17    6    8 1
    18    8    9 1
    19    8   14 1
    20    8   10 1
    21   10   11 1
    22   10   12 1
    23   10   27 1
    24   12   13 1
    25   12   40 1
    26   13   25 1
    27   13   14 1
    28   13   18 1
    29   14   15 1
    30   14   16 1
    31   16   17 2
    32   18   23 ar
    33   18   19 ar
    34   19   20 ar
    35   19   41 1
    36   20   21 ar
    37   20   42 1
    38   21   22 ar
    39   21   43 1
    40   22   23 ar
    41   22   44 1
    42   23   24 1
    43   24   25 am
    44   24   45 1
    45   25   26 2
    46   27   28 1
    47   27   46 1
    48   27   47 1
    49   28   29 2
    50   28   30 am
    51   30   48 1
    52   30   49 1
@<TRIPOS>MOLECULE
ZINC63280651
   49    52     0     0     0
SMALL
USER_CHARGES

@<TRIPOS>ATOM
      1 C1         -1.1750    0.9894   -0.5448 C.3       1 <0>        -0.1465
      2 C2         -0.3739   -0.2673   -0.1987 C.3       1 <0>        -0.0622
      3 C3         -1.3327   -1.3856    0.2148 C.3       1 <0>        -0.1468
      4 C4          0.4190   -0.7051   -1.4032 C.ar      1 <0>        -0.0488
      5 C5         -0.2362   -1.0312   -2.5774 C.ar      1 <0>        -0.1155
      6 C6          0.4834   -1.4328   -3.6838 C.ar      1 <0>        -0.0508
      7 C7          1.8759   -1.5097   -3.6166 C.ar      1 <0>        -0.0528
      8 C8          2.5306   -1.1792   -2.4284 C.ar      1 <0>        -0.0982
      9 C9          1.7990   -0.7737   -1.3314 C.ar      1 <0>        -0.1186
     10 C10         2.6525   -1.9391   -4.7964 C.2       1 <0>         0.2372
     11 N1          2.2822   -1.7717   -6.0437 N.2       1 <0>        -0.4597
     12 C11         3.2993   -2.2772   -6.9166 C.3       1 <0>         0.2826
     13 H1          4.0423   -1.4846   -7.0050 H         1 <0>         0.0840
     14 C12         4.0015   -3.3933   -6.0886 C.3       1 <0>        -0.1882
     15 H2          3.4155   -4.3112   -6.0424 H         1 <0>         0.1362
     16 C13         4.0130   -2.6401   -4.7460 C.3       1 <0>        -0.0658
     17 H3          4.8267   -1.9159   -4.7063 H         1 <0>         0.1365
     18 C14         4.0878   -3.6145   -3.5687 C.3       1 <0>        -0.1414
     19 H4          3.7849   -3.0794   -2.6687 H         1 <0>         0.1573
     20 C15         5.5333   -4.0413   -3.4002 C.2       1 <0>         0.5029
     21 N2          5.8069   -5.3223   -3.4760 N.2       1 <0>        -0.6087
     22 C16         4.8690   -6.2469   -3.6931 C.2       1 <0>         0.6815
     23 O1          5.2250   -7.4092   -3.7460 O.2       1 <0>        -0.5034
     24 N3          3.5653   -5.9897   -3.8565 N.am      1 <0>        -0.6934
     25 C17         3.0883   -4.7298   -3.8143 C.2       1 <0>         0.5362
     26 O2          1.9075   -4.4994   -3.9647 O.2       1 <0>        -0.4630
     27 N4          6.5074   -3.1323   -3.1798 N.pl3     1 <0>        -0.7718
     28 C18         5.3192   -3.6053   -6.7678 C.2       1 <0>         0.5417
     29 O3          6.3525   -3.7401   -6.1482 O.2       1 <0>        -0.4569
     30 N5          5.2779   -3.6369   -8.1286 N.am      1 <0>        -0.6824
     31 C19         4.1391   -3.4165   -8.8147 C.2       1 <0>         0.7224
     32 O4          4.0497   -3.8060   -9.9625 O.2       1 <0>        -0.5286
     33 N6          3.0918   -2.7790   -8.2408 N.am      1 <0>        -0.7010
     34 H5         -0.4920    1.7861   -0.8394 H         1 <0>         0.0574
     35 H6         -1.8554    0.7713   -1.3680 H         1 <0>         0.0585
     36 H7         -1.7485    1.3061    0.3264 H         1 <0>         0.0610
     37 H8          0.3065   -0.0491    0.6244 H         1 <0>         0.0809
     38 H9         -2.0131   -1.6037   -0.6084 H         1 <0>         0.0586
     39 H10        -0.7619   -2.2808    0.4614 H         1 <0>         0.0572
     40 H11        -1.9061   -1.0689    1.0860 H         1 <0>         0.0610
     41 H12        -1.3133   -0.9715   -2.6279 H         1 <0>         0.1298
     42 H13        -0.0293   -1.6873   -4.5996 H         1 <0>         0.1332
     43 H14         3.6074   -1.2366   -2.3697 H         1 <0>         0.1245
     44 H15         2.3044   -0.5136   -0.4131 H         1 <0>         0.1308
     45 H16         2.9523   -6.7255   -4.0106 H         1 <0>         0.4222
     46 H17         6.2793   -2.1979   -3.0540 H         1 <0>         0.4170
     47 H18         7.4351   -3.4138   -3.1472 H         1 <0>         0.4282
     48 H19         6.0935   -3.8236   -8.6194 H         1 <0>         0.4331
     49 H20         2.2481   -2.6717   -8.7073 H         1 <0>         0.4327
@<TRIPOS>BOND
     1    1    2 1
     2    1   34 1
     3    1   35 1
     4    1   36 1
     5    2    3 1
     6    2    4 1
     7    2   37 1
     8    3   38 1
     9    3   39 1
    10    3   40 1
    11    4    9 ar
    12    4    5 ar
    13    5    6 ar
    14    5   41 1
    15    6    7 ar
    16    6   42 1
    17    7    8 ar
    18    7   10 1
    19    8    9 ar
    20    8   43 1
    21    9   44 1
    22   10   16 1
    23   10   11 2
    24   11   12 1
    25   12   13 1
    26   12   33 1
    27   12   14 1
    28   14   15 1
    29   14   16 1
    30   14   28 1
    31   16   17 1
    32   16   18 1
    33   18   19 1
    34   18   25 1
    35   18   20 1
    36   20   21 2
    37   20   27 1
    38   21   22 1
    39   22   23 2
    40   22   24 am
    41   24   25 am
    42   24   45 1
    43   25   26 2
    44   27   46 1
    45   27   47 1
    46   28   29 2
    47   28   30 am
    48   30   31 am
    49   30   48 1
    50   31   32 2
    51   31   33 am
    52   33   49 1
@<TRIPOS>MOLECULE
ZINC67305144
   49    52     0     0     0
SMALL
USER_CHARGES

@<TRIPOS>ATOM
      1 C1         -0.0165    1.3620    0.0095 C.ar      1 <0>        -0.1461
      2 C2          1.1697    2.0834    0.0021 C.ar      1 <0>        -0.0974
      3 C3          2.3856    1.4362   -0.0134 C.ar      1 <0>        -0.1286
      4 C4          2.4281    0.0456   -0.0212 C.ar      1 <0>         0.1070
      5 C5          1.2234   -0.6807   -0.0132 C.ar      1 <0>        -0.1065
      6 C6          0.0021   -0.0041    0.0020 C.ar      1 <0>        -0.0700
      7 C7          1.6036   -2.0953   -0.0245 C.2       1 <0>        -0.1947
      8 C8          2.9451   -2.1410   -0.0380 C.2       1 <0>         0.0549
      9 N1          3.4551   -0.8713   -0.0363 N.pl3     1 <0>        -0.4720
     10 C9          4.8815   -0.5372   -0.0482 C.3       1 <0>         0.1053
     11 C10         5.3560   -0.3100    1.3640 C.2       1 <0>         0.4912
     12 O1          4.5792   -0.4167    2.2893 O.2       1 <0>        -0.5148
     13 N2          6.6436    0.0116    1.5987 N.am      1 <0>        -0.5222
     14 N3          7.0847    0.2229    2.9116 N.am      1 <0>        -0.5234
     15 C11         8.3723    0.5445    3.1463 C.2       1 <0>         0.5221
     16 O2          9.1491    0.6512    2.2210 O.2       1 <0>        -0.5294
     17 C12         8.8468    0.7717    4.5585 C.3       1 <0>        -0.0923
     18 C13         8.0575    1.9246    5.1824 C.3       1 <0>        -0.1235
     19 C14         8.5319    2.1463    6.6209 C.3       1 <0>        -0.1105
     20 C15        10.0221    2.4684    6.6239 C.3       1 <0>         0.1200
     21 C16        10.8202    1.3390    5.9818 C.3       1 <0>        -0.1124
     22 C17        10.3366    1.1206    4.5460 C.3       1 <0>        -0.1079
     23 C18        10.2818    3.7728    5.9061 C.2       1 <0>         0.5319
     24 O3         10.0484    4.0305    4.7447 O.2       1 <0>        -0.4509
     25 N4         10.8282    4.5901    6.8301 N.am      1 <0>        -0.6811
     26 C19        10.9456    3.9831    8.0174 C.2       1 <0>         0.7042
     27 O4         11.4098    4.5162    9.0061 O.2       1 <0>        -0.5382
     28 N5         10.4917    2.7154    7.9933 N.am      1 <0>        -0.7181
     29 H1         -0.9613    1.8849    0.0259 H         1 <0>         0.1228
     30 H2          1.1388    3.1630    0.0081 H         1 <0>         0.1246
     31 H3          3.3028    2.0064   -0.0198 H         1 <0>         0.1141
     32 H4         -0.9246   -0.5587    0.0082 H         1 <0>         0.1228
     33 H5          0.9320   -2.9411   -0.0220 H         1 <0>         0.1491
     34 H6          3.5346   -3.0459   -0.0490 H         1 <0>         0.1684
     35 H7          5.4433   -1.3588   -0.4925 H         1 <0>         0.1285
     36 H8          5.0376    0.3686   -0.6341 H         1 <0>         0.1227
     37 H9          7.2648    0.0969    0.8587 H         1 <0>         0.4334
     38 H10         6.4634    0.1376    3.6516 H         1 <0>         0.4321
     39 H11         8.6908   -0.1341    5.1443 H         1 <0>         0.1081
     40 H12         8.2204    2.8327    4.6019 H         1 <0>         0.0915
     41 H13         6.9955    1.6793    5.1836 H         1 <0>         0.0807
     42 H14         7.9801    2.9769    7.0610 H         1 <0>         0.0829
     43 H15         8.3545    1.2432    7.2048 H         1 <0>         0.0932
     44 H16        11.8780    1.6019    5.9725 H         1 <0>         0.0827
     45 H17        10.6792    0.4231    6.5556 H         1 <0>         0.0910
     46 H18        10.8976    0.3028    4.0938 H         1 <0>         0.0856
     47 H19        10.4917    2.0314    3.9676 H         1 <0>         0.0928
     48 H20        11.1024    5.5040    6.6556 H         1 <0>         0.4342
     49 H21        10.4774    2.0893    8.7341 H         1 <0>         0.4425
@<TRIPOS>BOND
     1    1    6 ar
     2    1    2 ar
     3    1   29 1
     4    2    3 ar
     5    2   30 1
     6    3    4 ar
     7    3   31 1
     8    4    9 1
     9    4    5 ar
    10    5    6 ar
    11    5    7 1
    12    6   32 1
    13    7    8 2
    14    7   33 1
    15    8    9 1
    16    8   34 1
    17    9   10 1
    18   10   11 1
    19   10   35 1
    20   10   36 1
    21   11   12 2
    22   11   13 am
    23   13   14 1
    24   13   37 1
    25   14   15 am
    26   14   38 1
    27   15   16 2
    28   15   17 1
    29   17   22 1
    30   17   18 1
    31   17   39 1
    32   18   19 1
    33   18   40 1
    34   18   41 1
    35   19   20 1
    36   19   42 1
    37   19   43 1
    38   20   28 1
    39   20   21 1
    40   20   23 1
    41   21   22 1
    42   21   44 1
    43   21   45 1
    44   22   46 1
    45   22   47 1
    46   23   24 2
    47   23   25 am
    48   25   26 am
    49   25   48 1
    50   26   27 2
    51   26   28 am
    52   28   49 1
@<TRIPOS>MOLECULE
ZINC13889042
   45    48     0     0     0
SMALL
USER_CHARGES
(3S,6R,6aR,7S,12aS)-6,6a,7,8-tetrahydroxy-3-methyl-3,4,5,6,7,12a-hexahydro-2H-benzo[a]anthracene-1,12-dione
@<TRIPOS>ATOM
      1 C1          0.3492    7.5362    5.0525 C.3       1 <0>        -0.1478
      2 C2          1.1908    6.2649    4.9234 C.3       1 <0>        -0.0892
      3 H1          1.8252    6.1533    5.8027 H         1 <0>         0.0790
      4 C3          0.2748    5.0541    4.7945 C.3       1 <0>        -0.0954
      5 C4          1.0543    3.7843    4.5345 C.2       1 <0>         0.0463
      6 C5          2.2660    3.8096    3.9917 C.2       1 <0>        -0.2196
      7 C6          3.0643    2.5626    3.7261 C.3       1 <0>        -0.0463
      8 H2          3.7178    2.4205    4.4696 H         1 <0>         0.0983
      9 C7          3.8336    2.6829    2.4360 C.2       1 <0>         0.4126
     10 O1          5.0011    3.0104    2.4375 O.2       1 <0>        -0.4108
     11 C8          3.1322    2.3922    1.1713 C.ar      1 <0>        -0.1222
     12 C9          3.7459    2.6891   -0.0488 C.ar      1 <0>        -0.0731
     13 C10         3.0950    2.4068   -1.2317 C.ar      1 <0>        -0.1063
     14 C11         1.8386    1.8285   -1.2086 C.ar      1 <0>        -0.1173
     15 C12         1.2229    1.5325   -0.0014 C.ar      1 <0>         0.1000
     16 C13         1.8599    1.8211    1.1984 C.ar      1 <0>        -0.0996
     17 C14         1.1633    1.5069    2.4910 C.3       1 <0>         0.1282
     18 H3          0.5949    0.5843    2.3734 H         1 <0>         0.0817
     19 C15         2.1474    1.3401    3.6489 C.3       1 <0>         0.1591
     20 C16         1.3393    1.3241    4.9606 C.3       1 <0>         0.0861
     21 H4          2.0114    1.4358    5.8115 H         1 <0>         0.0686
     22 C17         0.3631    2.4947    4.9155 C.3       1 <0>        -0.1478
     23 O2          0.6181    0.0954    5.0708 O.3       1 <0>        -0.5623
     24 O3          2.9127    0.1412    3.5103 O.3       1 <0>        -0.5336
     25 O4          0.2613    2.5719    2.7977 O.3       1 <0>        -0.5136
     26 O5         -0.0110    0.9628    0.0073 O.3       1 <0>        -0.4951
     27 C18         2.8991    5.0898    3.6291 C.2       1 <0>         0.3835
     28 O6          4.0689    5.1322    3.3101 O.2       1 <0>        -0.4422
     29 C19         2.0645    6.3488    3.6624 C.3       1 <0>        -0.1506
     30 H5         -0.2828    7.4651    5.9377 H         1 <0>         0.0616
     31 H6          1.0076    8.4000    5.1445 H         1 <0>         0.0611
     32 H7         -0.2767    7.6490    4.1673 H         1 <0>         0.0595
     33 H8         -0.4190    5.2199    3.9702 H         1 <0>         0.0937
     34 H9         -0.2926    4.9396    5.7181 H         1 <0>         0.0846
     35 H10         4.7279    3.1382   -0.0654 H         1 <0>         0.1390
     36 H11         3.5663    2.6370   -2.1758 H         1 <0>         0.1376
     37 H12         1.3337    1.6055   -2.1369 H         1 <0>         0.1363
     38 H13        -0.0951    2.6135    5.8973 H         1 <0>         0.0723
     39 H14        -0.4163    2.2796    4.1845 H         1 <0>         0.1626
     40 H15         0.0660    0.0330    5.8622 H         1 <0>         0.3872
     41 H16         2.3780   -0.6627    3.4570 H         1 <0>         0.3911
     42 H17        -0.3966    2.7406    2.1094 H         1 <0>         0.3640
     43 H18         0.0021   -0.0041    0.0020 H         1 <0>         0.3934
     44 H19         1.4786    6.4149    2.8547 H         1 <0>         0.0922
     45 H20         2.7119    7.2242    3.7147 H         1 <0>         0.0931
@<TRIPOS>BOND
     1    1    2 1
     2    1   30 1
     3    1   31 1
     4    1   32 1
     5    2    3 1
     6    2   29 1
     7    2    4 1
     8    4    5 1
     9    4   33 1
    10    4   34 1
    11    5   22 1
    12    5    6 2
    13    6    7 1
    14    6   27 1
    15    7    8 1
    16    7   19 1
    17    7    9 1
    18    9   10 2
    19    9   11 1
    20   11   16 ar
    21   11   12 ar
    22   12   13 ar
    23   12   35 1
    24   13   14 ar
    25   13   36 1
    26   14   15 ar
    27   14   37 1
    28   15   16 ar
    29   15   26 1
    30   16   17 1
    31   17   18 1
    32   17   19 1
    33   17   25 1
    34   19   20 1
    35   19   24 1
    36   20   21 1
    37   20   22 1
    38   20   23 1
    39   22   38 1
    40   22   39 1
    41   23   40 1
    42   24   41 1
    43   25   42 1
    44   26   43 1
    45   27   28 2
    46   27   29 1
    47   29   44 1
    48   29   45 1
@<TRIPOS>MOLECULE
ZINC02512313
   28    29     0     0     0
SMALL
USER_CHARGES

@<TRIPOS>ATOM
      1 C1          1.1995   -0.6676   -0.3296 C.ar      1 <0>        -0.0501
      2 C2          2.3749    0.0450   -0.4278 C.ar      1 <0>        -0.1442
      3 C3          2.3661    1.4266   -0.2930 C.ar      1 <0>         0.1178
      4 C4          1.1674    2.0999   -0.0580 C.ar      1 <0>         0.0673
      5 C5         -0.0140    1.3922    0.0409 C.ar      1 <0>        -0.0676
      6 C6         -0.0050    0.0005   -0.0944 C.ar      1 <0>        -0.1556
      7 C7         -1.2649   -0.7610    0.0105 C.2       1 <0>         0.4561
      8 O1         -1.2439   -1.9773   -0.0085 O.2       1 <0>        -0.4358
      9 C8         -2.5470   -0.0488    0.1382 C.ar      1 <0>        -0.1874
     10 C9         -3.1966    0.0125    1.3762 C.ar      1 <0>        -0.0497
     11 C10        -4.3852    0.6737    1.4932 C.ar      1 <0>        -0.1518
     12 C11        -4.9598    1.2905    0.3853 C.ar      1 <0>         0.1436
     13 C12        -4.3293    1.2394   -0.8494 C.ar      1 <0>        -0.1748
     14 C13        -3.1206    0.5770   -0.9805 C.ar      1 <0>         0.1586
     15 O2         -2.4966    0.5280   -2.1840 O.3       1 <0>        -0.4911
     16 O3         -6.1421    1.9440    0.5135 O.3       1 <0>        -0.4949
     17 O4          1.1623    3.4535    0.0740 O.3       1 <0>        -0.4842
     18 O5          3.5271    2.1241   -0.3896 O.3       1 <0>        -0.4859
     19 H1          1.2087   -1.7420   -0.4390 H         1 <0>         0.1429
     20 H2          3.3052   -0.4727   -0.6096 H         1 <0>         0.1429
     21 H3         -0.9428    1.9123    0.2232 H         1 <0>         0.1394
     22 H4         -2.7572   -0.4641    2.2400 H         1 <0>         0.1383
     23 H5         -4.8827    0.7183    2.4507 H         1 <0>         0.1406
     24 H6         -4.7788    1.7190   -1.7064 H         1 <0>         0.1435
     25 H7         -2.7492   -0.2310   -2.7273 H         1 <0>         0.3992
     26 H8         -6.0517    2.8795    0.7413 H         1 <0>         0.3986
     27 H9          1.0376    3.9294   -0.7585 H         1 <0>         0.3897
     28 H10         3.7404    2.4103   -1.2883 H         1 <0>         0.3943
@<TRIPOS>BOND
     1    1    6 ar
     2    1    2 ar
     3    1   19 1
     4    2    3 ar
     5    2   20 1
     6    3    4 ar
     7    3   18 1
     8    4    5 ar
     9    4   17 1
    10    5    6 ar
    11    5   21 1
    12    6    7 1
    13    7    8 2
    14    7    9 1
    15    9   14 ar
    16    9   10 ar
    17   10   11 ar
    18   10   22 1
    19   11   12 ar
    20   11   23 1
    21   12   13 ar
    22   12   16 1
    23   13   14 ar
    24   13   24 1
    25   14   15 1
    26   15   25 1
    27   16   26 1
    28   17   27 1
    29   18   28 1
@<TRIPOS>MOLECULE
ZINC49716107
   35    37     0     0     0
SMALL
USER_CHARGES

@<TRIPOS>ATOM
      1 C1         -0.0167    1.3779    0.0096 C.ar      1 <0>        -0.0701
      2 C2          1.1692    2.0897    0.0021 C.ar      1 <0>        -0.0998
      3 C3          2.3812    1.4171   -0.0131 C.ar      1 <0>         0.1737
      4 C4          2.4001    0.0221   -0.0208 C.ar      1 <0>         0.1917
      5 C5          1.2068   -0.6833   -0.0132 C.ar      1 <0>        -0.0975
      6 C6          0.0021   -0.0041    0.0020 C.ar      1 <0>        -0.6297
      7 S1         -1.5132   -0.9032    0.0123 S.o2      1 <0>         2.7015
      8 O1         -1.2216   -2.1844    0.5534 O.2       1 <0>        -0.9650
      9 O2         -2.4924   -0.0424    0.5775 O.2       1 <0>        -0.9630
     10 N1         -1.9500   -1.1446   -1.5667 N.pl3     1 <0>        -1.2501
     11 N2          3.6209   -0.6635   -0.0366 N.pl3     1 <0>        -0.8693
     12 N3          3.5829    2.1356   -0.0212 N.pl3     1 <0>        -0.6858
     13 C7          4.3253    2.5999   -1.2116 C.3       1 <0>         0.1375
     14 C8          5.5912    3.3196   -0.6509 C.3       1 <0>        -0.1119
     15 H1          6.4327    3.4253   -1.3357 H         1 <0>         0.1101
     16 C9          5.0310    4.6385   -0.0323 C.3       1 <0>        -0.1182
     17 C10         4.1872    4.1617    1.1730 C.3       1 <0>        -0.1384
     18 C11         4.3588    2.5865    1.1700 C.3       1 <0>         0.1470
     19 H2          4.1283    2.0763    2.1052 H         1 <0>         0.1038
     20 C12         5.8321    2.4519    0.6368 C.3       1 <0>        -0.1353
     21 H3         -0.9600    1.9035    0.0260 H         1 <0>         0.1408
     22 H4          1.1509    3.1695    0.0078 H         1 <0>         0.1318
     23 H5          1.2178   -1.7632   -0.0195 H         1 <0>         0.1408
     24 H6         -1.3903   -0.8044   -2.2822 H         1 <0>         0.4168
     25 H7         -2.7656   -1.6261   -1.7762 H         1 <0>         0.4208
     26 H8          4.4550   -0.1685   -0.0422 H         1 <0>         0.4018
     27 H9          3.6324   -1.6334   -0.0419 H         1 <0>         0.3995
     28 H10         4.6161    1.7511   -1.8305 H         1 <0>         0.0468
     29 H11         3.7176    3.2979   -1.7875 H         1 <0>         0.0521
     30 H12         5.8466    5.2796    0.3025 H         1 <0>         0.0652
     31 H13         4.4041    5.1624   -0.7538 H         1 <0>         0.0654
     32 H14         4.5765    4.5821    2.1002 H         1 <0>         0.0666
     33 H15         3.1414    4.4380    1.0384 H         1 <0>         0.0674
     34 H16         6.0940    1.4215    0.3961 H         1 <0>         0.0718
     35 H17         6.5564    2.9084    1.3114 H         1 <0>         0.0813
@<TRIPOS>BOND
     1    1    6 ar
     2    1    2 ar
     3    1   21 1
     4    2    3 ar
     5    2   22 1
     6    3    4 ar
     7    3   12 1
     8    4    5 ar
     9    4   11 1
    10    5    6 ar
    11    5   23 1
    12    6    7 1
    13    7    8 2
    14    7    9 2
    15    7   10 1
    16   10   24 1
    17   10   25 1
    18   11   26 1
    19   11   27 1
    20   12   18 1
    21   12   13 1
    22   13   14 1
    23   13   28 1
    24   13   29 1
    25   14   15 1
    26   14   20 1
    27   14   16 1
    28   16   17 1
    29   16   30 1
    30   16   31 1
    31   17   18 1
    32   17   32 1
    33   17   33 1
    34   18   19 1
    35   18   20 1
    36   20   34 1
    37   20   35 1
@<TRIPOS>MOLECULE
ZINC51993483
   36    37     0     0     0
SMALL
USER_CHARGES

@<TRIPOS>ATOM
      1 C1         -0.0168    1.3843    0.0097 C.ar      1 <0>        -0.1187
      2 C2          1.1707    2.0902    0.0021 C.ar      1 <0>        -0.1176
      3 C3          2.3788    1.4144   -0.0131 C.ar      1 <0>         0.1303
      4 C4          2.4000    0.0297   -0.0212 C.ar      1 <0>        -0.6630
      5 C5          1.2154   -0.6800   -0.0141 C.ar      1 <0>        -0.0749
      6 C6          0.0021   -0.0041    0.0020 C.ar      1 <0>         0.1935
      7 N1         -1.1985   -0.7206    0.0101 N.pl3     1 <0>        -0.8724
      8 S1          3.9395   -0.8271   -0.0410 S.o2      1 <0>         2.6965
      9 O1          4.7400   -0.2476    0.9801 O.2       1 <0>        -0.9396
     10 O2          3.6320   -2.2141   -0.0730 O.2       1 <0>        -0.9554
     11 N2          4.6785   -0.4728   -1.4801 N.pl3     1 <0>        -1.1009
     12 C7          5.1005    0.9001   -1.7683 C.3       1 <0>         0.1499
     13 H1          5.2675    1.4330   -0.8322 H         1 <0>         0.1117
     14 C8          4.0098    1.6108   -2.5722 C.3       1 <0>        -0.1422
     15 C9          4.4506    3.0447   -2.8732 C.3       1 <0>        -0.1197
     16 C10         5.7477    3.0199   -3.6843 C.3       1 <0>        -0.1198
     17 C11         6.8384    2.3092   -2.8804 C.3       1 <0>        -0.1529
     18 C12         6.3976    0.8753   -2.5794 C.3       1 <0>         0.1045
     19 H2          6.2306    0.3425   -3.5155 H         1 <0>         0.0612
     20 O3          7.4163    0.2115   -1.8286 O.3       1 <0>        -0.5582
     21 F1          3.5389    2.1068   -0.0204 F         1 <0>        -0.1253
     22 H3         -0.9590    1.9119    0.0260 H         1 <0>         0.1401
     23 H4          1.1565    3.1701    0.0077 H         1 <0>         0.1464
     24 H5          1.2323   -1.7599   -0.0212 H         1 <0>         0.1513
     25 H6         -2.0455   -0.2478    0.0210 H         1 <0>         0.4034
     26 H7         -1.1846   -1.6905    0.0048 H         1 <0>         0.4043
     27 H8          4.8319   -1.1744   -2.1321 H         1 <0>         0.4197
     28 H9          3.8429    1.0780   -3.5082 H         1 <0>         0.0721
     29 H10         3.0858    1.6285   -1.9943 H         1 <0>         0.0736
     30 H11         3.6736    3.5510   -3.4459 H         1 <0>         0.0698
     31 H12         4.6176    3.5776   -1.9371 H         1 <0>         0.0707
     32 H13         5.5807    2.4870   -4.6204 H         1 <0>         0.0649
     33 H14         6.0617    4.0414   -3.8987 H         1 <0>         0.0697
     34 H15         7.7624    2.2915   -3.4582 H         1 <0>         0.0713
     35 H16         7.0053    2.8421   -1.9443 H         1 <0>         0.0766
     36 H17         8.2683    0.1587   -2.2828 H         1 <0>         0.3793
@<TRIPOS>BOND
     1    1    6 ar
     2    1    2 ar
     3    1   22 1
     4    2    3 ar
     5    2   23 1
     6    3    4 ar
     7    3   21 1
     8    4    5 ar
     9    4    8 1
    10    5    6 ar
    11    5   24 1
    12    6    7 1
    13    7   25 1
    14    7   26 1
    15    8    9 2
    16    8   10 2
    17    8   11 1
    18   11   12 1
    19   11   27 1
    20   12   13 1
    21   12   18 1
    22   12   14 1
    23   14   15 1
    24   14   28 1
    25   14   29 1
    26   15   16 1
    27   15   30 1
    28   15   31 1
    29   16   17 1
    30   16   32 1
    31   16   33 1
    32   17   18 1
    33   17   34 1
    34   17   35 1
    35   18   19 1
    36   18   20 1
    37   20   36 1
@<TRIPOS>MOLECULE
ZINC63008571
   35    36     0     0     0
SMALL
USER_CHARGES

@<TRIPOS>ATOM
      1 C1         -0.0401    1.4138    0.8430 C.ar      1 <0>        -0.0756
      2 C2          1.1251    2.1097    0.5147 C.ar      1 <0>        -0.0861
      3 C3          2.2983    1.4060    0.2356 C.ar      1 <0>        -0.1038
      4 C4          2.3016    0.0262    0.2851 C.ar      1 <0>         0.0979
      5 C5          1.1411   -0.6613    0.6118 C.ar      1 <0>         0.0593
      6 C6         -0.0274    0.0339    0.8901 C.ar      1 <0>         0.0981
      7 F1         -1.1541   -0.6404    1.2079 F         1 <0>        -0.1101
      8 F2          1.1487   -2.0115    0.6587 F         1 <0>        -0.1081
      9 F3          3.4360   -0.6558    0.0147 F         1 <0>        -0.1119
     10 C7          1.1165    3.5861    0.4626 C.2       1 <0>         0.5653
     11 O1          0.0731    4.1933    0.6062 O.2       1 <0>        -0.5175
     12 N1          2.2653    4.2598    0.2557 N.am      1 <0>        -0.7154
     13 C8          2.2770    5.7236    0.3155 C.3       1 <0>         0.1542
     14 H1          1.4995    6.0755    0.9935 H         1 <0>         0.1052
     15 C9          2.0556    6.3118   -1.0933 C.3       1 <0>        -0.1370
     16 C10         2.9688    7.5623   -1.1306 C.3       1 <0>        -0.1239
     17 C11         4.2220    7.0938   -0.3502 C.3       1 <0>        -0.1210
     18 C12         3.6540    6.2207    0.7892 C.3       1 <0>        -0.0922
     19 H2          3.5447    6.8147    1.6966 H         1 <0>         0.1131
     20 C13         4.5659    5.0486    1.0455 C.2       1 <0>         0.3711
     21 N2          4.6986    4.5833    2.2433 N.2       1 <0>        -0.4191
     22 O2          3.9012    5.0968    3.2947 O.3       1 <0>        -0.4048
     23 N3          5.2578    4.4735    0.0028 N.pl3     1 <0>        -0.8400
     24 H3         -0.9487    1.9542    1.0640 H         1 <0>         0.1700
     25 H4          3.2018    1.9402   -0.0191 H         1 <0>         0.1528
     26 H5          3.0843    3.7755    0.0672 H         1 <0>         0.4004
     27 H6          2.3579    5.5957   -1.8575 H         1 <0>         0.0738
     28 H7          1.0123    6.5971   -1.2279 H         1 <0>         0.0801
     29 H8          3.2275    7.8212   -2.1573 H         1 <0>         0.0772
     30 H9          2.4924    8.4036   -0.6273 H         1 <0>         0.0759
     31 H10         4.8742    6.5041   -0.9944 H         1 <0>         0.0722
     32 H11         4.7596    7.9499    0.0575 H         1 <0>         0.0788
     33 H12         4.1238    4.7423    4.1664 H         1 <0>         0.4008
     34 H13         5.1582    4.8229   -0.8966 H         1 <0>         0.4132
     35 H14         5.8447    3.7191    0.1678 H         1 <0>         0.4072
@<TRIPOS>BOND
     1    1    6 ar
     2    1    2 ar
     3    1   24 1
     4    2    3 ar
     5    2   10 1
     6    3    4 ar
     7    3   25 1
     8    4    5 ar
     9    4    9 1
    10    5    6 ar
    11    5    8 1
    12    6    7 1
    13   10   11 2
    14   10   12 am
    15   12   13 1
    16   12   26 1
    17   13   14 1
    18   13   18 1
    19   13   15 1
    20   15   16 1
    21   15   27 1
    22   15   28 1
    23   16   17 1
    24   16   29 1
    25   16   30 1
    26   17   18 1
    27   17   31 1
    28   17   32 1
    29   18   19 1
    30   18   20 1
    31   20   21 2
    32   20   23 1
    33   21   22 1
    34   22   33 1
    35   23   34 1
    36   23   35 1
@<TRIPOS>MOLECULE
ZINC01257985
   47    50     0     0     0
SMALL
USER_CHARGES
(6R)-6-(3-hydroxyphenyl)-9,9-dimethyl-6,8,10,11-tetrahydro-5H-benzo[c][1,5]benzodiazepin-7-one
@<TRIPOS>ATOM
      1 C1          6.5226    1.0171   -0.6694 C.3       1 <0>        -0.1505
      2 C2          5.8522    0.4300   -1.9131 C.3       1 <0>        -0.0546
      3 C3          4.4125    0.0354   -1.5877 C.3       1 <0>        -0.1008
      4 C4          3.6365    1.2558   -1.1191 C.2       1 <0>         0.2703
      5 C5          3.9126    2.4693   -1.6235 C.2       1 <0>        -0.3012
      6 C6          3.1999    3.7558   -1.2787 C.3       1 <0>         0.2841
      7 H1          3.9604    4.4915   -0.9779 H         1 <0>         0.0913
      8 N1          2.3218    3.6632   -0.1316 N.pl3     1 <0>        -0.7821
      9 C7          1.1939    2.8445   -0.1527 C.ar      1 <0>         0.1752
     10 C8         -0.0857    3.3762   -0.1151 C.ar      1 <0>        -0.1250
     11 C9         -1.1769    2.5307   -0.2140 C.ar      1 <0>        -0.1100
     12 C10        -0.9959    1.1660   -0.3474 C.ar      1 <0>        -0.1262
     13 C11         0.2803    0.6289   -0.3536 C.ar      1 <0>        -0.1195
     14 C12         1.3719    1.4727   -0.2508 C.ar      1 <0>         0.1138
     15 N2          2.6774    0.9960   -0.1944 N.pl3     1 <0>        -0.6987
     16 C13         2.3820    4.1836   -2.4699 C.ar      1 <0>        -0.0394
     17 C14         2.6720    5.3712   -3.1165 C.ar      1 <0>        -0.1333
     18 C15         1.9241    5.7660   -4.2101 C.ar      1 <0>        -0.0828
     19 C16         0.8847    4.9745   -4.6598 C.ar      1 <0>        -0.1652
     20 C17         0.5916    3.7831   -4.0127 C.ar      1 <0>         0.1490
     21 C18         1.3470    3.3865   -2.9185 C.ar      1 <0>        -0.1968
     22 O1         -0.4299    3.0026   -4.4534 O.3       1 <0>        -0.5104
     23 C19         4.9556    2.6294   -2.5661 C.2       1 <0>         0.4003
     24 O2          5.1696    3.7365   -3.0198 O.2       1 <0>        -0.4724
     25 C20         5.8068    1.4841   -3.0255 C.3       1 <0>        -0.1610
     26 C21         6.6304   -0.7969   -2.3927 C.3       1 <0>        -0.1437
     27 H2          6.5522    0.2565    0.1247 H         1 <0>         0.0594
     28 H3          5.9495    1.8889   -0.3210 H         1 <0>         0.0619
     29 H4          7.5481    1.3279   -0.9179 H         1 <0>         0.0608
     30 H5          3.9329   -0.3766   -2.4878 H         1 <0>         0.0928
     31 H6          4.4113   -0.7237   -0.7916 H         1 <0>         0.0845
     32 H7          2.5399    4.2447    0.7763 H         1 <0>         0.4165
     33 H8         -0.2299    4.4413   -0.0098 H         1 <0>         0.1230
     34 H9         -2.1762    2.9397   -0.1910 H         1 <0>         0.1227
     35 H10        -1.8534    0.5164   -0.4432 H         1 <0>         0.1252
     36 H11         0.4223   -0.4380   -0.4424 H         1 <0>         0.1249
     37 H12         2.9100    0.3669    0.6775 H         1 <0>         0.4257
     38 H13         3.4843    5.9910   -2.7667 H         1 <0>         0.1209
     39 H14         2.1528    6.6937   -4.7136 H         1 <0>         0.1257
     40 H15         0.3012    5.2830   -5.5147 H         1 <0>         0.1234
     41 H16         1.1238    2.4570   -2.4159 H         1 <0>         0.1198
     42 H17        -0.6615    2.0580   -3.9396 H         1 <0>         0.4262
     43 H18         6.8267    1.8375   -3.2376 H         1 <0>         0.0960
     44 H19         5.3764    1.0393   -3.9348 H         1 <0>         0.0977
     45 H20         6.1433   -1.2137   -3.2865 H         1 <0>         0.0590
     46 H21         6.6461   -1.5555   -1.5963 H         1 <0>         0.0607
     47 H22         7.6613   -0.5035   -2.6401 H         1 <0>         0.0628
@<TRIPOS>BOND
     1    1    2 1
     2    1   27 1
     3    1   28 1
     4    1   29 1
     5    2   25 1
     6    2    3 1
     7    2   26 1
     8    3    4 1
     9    3   30 1
    10    3   31 1
    11    4   15 1
    12    4    5 2
    13    5    6 1
    14    5   23 1
    15    6    7 1
    16    6    8 1
    17    6   16 1
    18    8    9 1
    19    8   32 1
    20    9   14 ar
    21    9   10 ar
    22   10   11 ar
    23   10   33 1
    24   11   12 ar
    25   11   34 1
    26   12   13 ar
    27   12   35 1
    28   13   14 ar
    29   13   36 1
    30   14   15 1
    31   15   37 1
    32   16   21 ar
    33   16   17 ar
    34   17   18 ar
    35   17   38 1
    36   18   19 ar
    37   18   39 1
    38   19   20 ar
    39   19   40 1
    40   20   21 ar
    41   20   22 1
    42   21   41 1
    43   22   42 1
    44   23   24 2
    45   23   25 1
    46   25   43 1
    47   25   44 1
    48   26   45 1
    49   26   46 1
    50   26   47 1
@<TRIPOS>MOLECULE
ZINC22148913
   35    36     0     0     0
SMALL
USER_CHARGES
2-amino-N-(4-bromo-2,6-dimethyl-phenyl)benzenesulfonamide
@<TRIPOS>ATOM
      1 C1          1.2566    1.9791   -1.9479 C.3       1 <0>        -0.1204
      2 C2          0.5404    2.3315   -0.6697 C.ar      1 <0>        -0.0651
      3 C3         -0.6893    1.7692   -0.3887 C.ar      1 <0>        -0.0953
      4 C4         -1.3496    2.0960    0.7824 C.ar      1 <0>        -0.0754
      5 C5         -0.7757    2.9785    1.6803 C.ar      1 <0>        -0.0923
      6 C6          0.4537    3.5440    1.4047 C.ar      1 <0>        -0.0575
      7 C7          1.1166    3.2219    0.2273 C.ar      1 <0>         0.1423
      8 N1          2.3604    3.7927   -0.0544 N.pl3     1 <0>        -1.0754
      9 S1          2.4729    5.4119   -0.3831 S.o2      1 <0>         2.6886
     10 O1          1.7161    6.0825    0.6153 O.2       1 <0>        -0.9436
     11 O2          3.8490    5.6859   -0.6083 O.2       1 <0>        -0.9587
     12 C8          1.6467    5.6914   -1.9140 C.ar      1 <0>        -0.7555
     13 C9          0.5042    6.4668   -1.9516 C.ar      1 <0>         0.0254
     14 C10        -0.1421    6.6906   -3.1533 C.ar      1 <0>        -0.1992
     15 C11         0.3467    6.1306   -4.3197 C.ar      1 <0>        -0.0151
     16 C12         1.4853    5.3501   -4.2884 C.ar      1 <0>        -0.2204
     17 C13         2.1402    5.1276   -3.0835 C.ar      1 <0>         0.3233
     18 N2          3.2919    4.3382   -3.0482 N.pl3     1 <0>        -0.8897
     19 C14         1.0753    4.5100    2.3802 C.3       1 <0>        -0.1140
     20 Br1        -3.0365    1.3293    1.1601 Br        1 <0>        -0.0447
     21 H1          0.6490    1.2657   -2.5239 H         1 <0>         0.0690
     22 H2          2.2292    1.5238   -1.7097 H         1 <0>         0.0733
     23 H3          1.4144    2.8906   -2.5431 H         1 <0>         0.0802
     24 H4         -1.1380    1.0771   -1.0859 H         1 <0>         0.1363
     25 H5         -1.2917    3.2289    2.5954 H         1 <0>         0.1392
     26 H6          3.2649    3.1666   -0.0579 H         1 <0>         0.4474
     27 H7          0.1174    6.9019   -1.0419 H         1 <0>         0.1394
     28 H8         -1.0331    7.3003   -3.1805 H         1 <0>         0.1286
     29 H9         -0.1631    6.3037   -5.2559 H         1 <0>         0.1291
     30 H10         1.8662    4.9129   -5.1995 H         1 <0>         0.1289
     31 H11         3.6817    3.8923   -3.9751 H         1 <0>         0.4306
     32 H12         3.8092    4.1624   -2.0935 H         1 <0>         0.4144
     33 H13         2.0457    4.8512    1.9904 H         1 <0>         0.0720
     34 H14         1.2247    4.0087    3.3479 H         1 <0>         0.0670
     35 H15         0.4093    5.3751    2.5143 H         1 <0>         0.0873
@<TRIPOS>BOND
     1    1    2 1
     2    1   21 1
     3    1   22 1
     4    1   23 1
     5    2    7 ar
     6    2    3 ar
     7    3    4 ar
     8    3   24 1
     9    4    5 ar
    10    4   20 1
    11    5    6 ar
    12    5   25 1
    13    6    7 ar
    14    6   19 1
    15    7    8 1
    16    8    9 1
    17    8   26 1
    18    9   10 2
    19    9   11 2
    20    9   12 1
    21   12   17 ar
    22   12   13 ar
    23   13   14 ar
    24   13   27 1
    25   14   15 ar
    26   14   28 1
    27   15   16 ar
    28   15   29 1
    29   16   17 ar
    30   16   30 1
    31   17   18 1
    32   18   31 1
    33   18   32 1
    34   19   33 1
    35   19   34 1
    36   19   35 1
@<TRIPOS>MOLECULE
ZINC37129804
   34    36     0     0     0
SMALL
USER_CHARGES

@<TRIPOS>ATOM
      1 C1         -0.0184    1.5028    0.0103 C.3       1 <0>        -0.0741
      2 C2          0.0021   -0.0041    0.0020 C.2       1 <0>        -0.1313
      3 C3         -1.0392   -0.8719    0.0017 C.2       1 <0>        -0.1668
      4 C4         -0.7802   -2.2296   -0.0075 C.2       1 <0>        -0.1330
      5 C5          0.5074   -2.6532   -0.0160 C.2       1 <0>        -0.1678
      6 S1          1.4039   -1.1093   -0.0179 S.3       1 <0>         0.0439
      7 C6          1.0430   -4.0617   -0.0269 C.3       1 <0>         0.2356
      8 H1          0.2712   -4.7467    0.3242 H         1 <0>         0.1024
      9 C7          1.4518   -4.4409   -1.4516 C.3       1 <0>        -0.1680
     10 N1          2.2097   -4.1473    0.8550 N.pl3     1 <0>        -0.7322
     11 C8          2.5659   -5.3738    1.4272 C.ar      1 <0>         0.2629
     12 C9          1.8168   -6.5088    1.1539 C.ar      1 <0>        -0.1879
     13 C10         2.1723   -7.7222    1.7217 C.ar      1 <0>         0.1602
     14 C11         3.2821   -7.7982    2.5660 C.ar      1 <0>         0.0370
     15 C12         4.0272   -6.6606    2.8357 C.ar      1 <0>        -0.0228
     16 C13         3.6738   -5.4536    2.2643 C.ar      1 <0>        -0.1596
     17 Br1         4.6949   -3.9039    2.6270 Br        1 <0>        -0.0363
     18 N2          3.3856   -9.1281    2.9756 N.am      1 <0>        -0.6386
     19 H2          4.0628   -9.4884    3.5693 H         1 <0>         0.4367
     20 C14         2.3849   -9.8257    2.4058 C.2       1 <0>         0.6866
     21 O1          2.1872  -11.0170    2.5561 O.2       1 <0>        -0.5522
     22 N3          1.6365   -9.0059    1.6442 N.am      1 <0>        -0.6415
     23 H3          0.8564   -9.2649    1.1291 H         1 <0>         0.4370
     24 H4          1.0042    1.8801    0.0026 H         1 <0>         0.0737
     25 H5         -0.5455    1.8639   -0.8728 H         1 <0>         0.0831
     26 H6         -0.5286    1.8543    0.9071 H         1 <0>         0.0830
     27 H7         -2.0560   -0.5079    0.0090 H         1 <0>         0.1354
     28 H8         -1.5916   -2.9424   -0.0076 H         1 <0>         0.1345
     29 H9          2.2236   -3.7560   -1.8027 H         1 <0>         0.0650
     30 H10         1.8393   -5.4597   -1.4595 H         1 <0>         0.0708
     31 H11         0.5838   -4.3773   -2.1078 H         1 <0>         0.0722
     32 H12         2.7353   -3.3538    1.0424 H         1 <0>         0.4072
     33 H13         0.9588   -6.4471    0.5009 H         1 <0>         0.1414
     34 H14         4.8853   -6.7188    3.4889 H         1 <0>         0.1435
@<TRIPOS>BOND
     1    1    2 1
     2    1   24 1
     3    1   25 1
     4    1   26 1
     5    2    6 1
     6    2    3 2
     7    3    4 1
     8    3   27 1
     9    4    5 2
    10    4   28 1
    11    5    6 1
    12    5    7 1
    13    7    8 1
    14    7    9 1
    15    7   10 1
    16    9   29 1
    17    9   30 1
    18    9   31 1
    19   10   11 1
    20   10   32 1
    21   11   16 ar
    22   11   12 ar
    23   12   13 ar
    24   12   33 1
    25   13   22 1
    26   13   14 ar
    27   14   15 ar
    28   14   18 1
    29   15   16 ar
    30   15   34 1
    31   16   17 1
    32   18   19 1
    33   18   20 am
    34   20   21 2
    35   20   22 am
    36   22   23 1
@<TRIPOS>MOLECULE
ZINC49525175
   37    39     0     0     0
SMALL
USER_CHARGES

@<TRIPOS>ATOM
      1 C1         -0.0187    1.5258    0.0104 C.3       1 <0>        -0.1663
      2 C2          0.0021   -0.0041    0.0020 C.3       1 <0>         0.1935
      3 H1          0.5123   -0.3556   -0.8948 H         1 <0>         0.0905
      4 C3         -1.4117   -0.5257    0.0127 C.ar      1 <0>        -0.0741
      5 C4         -2.1227   -0.5708    1.1975 C.ar      1 <0>        -0.1087
      6 C5         -3.4195   -1.0487    1.2077 C.ar      1 <0>        -0.0861
      7 C6         -4.0061   -1.4819    0.0322 C.ar      1 <0>        -0.0906
      8 C7         -3.2943   -1.4366   -1.1530 C.ar      1 <0>        -0.0851
      9 C8         -1.9993   -0.9536   -1.1632 C.ar      1 <0>        -0.1026
     10 Br1        -5.7801   -2.1364    0.0456 Br        1 <0>        -0.0466
     11 N1          0.7106   -0.4894    1.1889 N.pl3     1 <0>        -0.7450
     12 C9          2.1077   -0.6042    1.1731 C.ar      1 <0>         0.1324
     13 C10         2.8188   -0.2493    0.0256 C.ar      1 <0>        -0.1091
     14 C11         4.1760   -0.3499   -0.0200 C.ar      1 <0>        -0.1071
     15 C12         4.8864   -0.8170    1.0985 C.ar      1 <0>         0.1222
     16 C13         4.1754   -1.1803    2.2704 C.ar      1 <0>        -0.1075
     17 C14         2.7721   -1.0635    2.2978 C.ar      1 <0>         0.1560
     18 N2          2.0572   -1.4128    3.4462 N.pl3     1 <0>        -0.8740
     19 C15         4.8917   -1.6470    3.3863 C.ar      1 <0>        -0.0626
     20 C16         6.2526   -1.7303    3.2908 C.ar      1 <0>        -0.1772
     21 C17         6.8903   -1.3576    2.1105 C.ar      1 <0>         0.1207
     22 N3          6.2195   -0.9223    1.0714 N.ar      1 <0>        -0.4682
     23 H2          1.0039    1.9031    0.0027 H         1 <0>         0.0673
     24 H3         -0.5459    1.8868   -0.8726 H         1 <0>         0.0669
     25 H4         -0.5289    1.8773    0.9072 H         1 <0>         0.0603
     26 H5         -1.6645   -0.2329    2.1152 H         1 <0>         0.1278
     27 H6         -3.9748   -1.0842    2.1334 H         1 <0>         0.1344
     28 H7         -3.7519   -1.7746   -2.0710 H         1 <0>         0.1360
     29 H8         -1.4449   -0.9143   -2.0892 H         1 <0>         0.1353
     30 H9          0.2131   -0.7312    1.9857 H         1 <0>         0.3919
     31 H10         2.2837    0.1108   -0.8406 H         1 <0>         0.1305
     32 H11         4.7074   -0.0704   -0.9177 H         1 <0>         0.1344
     33 H12         1.0905   -1.3341    3.4583 H         1 <0>         0.3931
     34 H13         2.5276   -1.7340    4.2313 H         1 <0>         0.3983
     35 H14         4.3808   -1.9316    4.2942 H         1 <0>         0.1284
     36 H15         6.8327   -2.0845    4.1301 H         1 <0>         0.1344
     37 H16         7.9663   -1.4283    2.0494 H         1 <0>         0.1565
@<TRIPOS>BOND
     1    1    2 1
     2    1   23 1
     3    1   24 1
     4    1   25 1
     5    2    3 1
     6    2    4 1
     7    2   11 1
     8    4    9 ar
     9    4    5 ar
    10    5    6 ar
    11    5   26 1
    12    6    7 ar
    13    6   27 1
    14    7    8 ar
    15    7   10 1
    16    8    9 ar
    17    8   28 1
    18    9   29 1
    19   11   12 1
    20   11   30 1
    21   12   17 ar
    22   12   13 ar
    23   13   14 ar
    24   13   31 1
    25   14   15 ar
    26   14   32 1
    27   15   22 ar
    28   15   16 ar
    29   16   17 ar
    30   16   19 ar
    31   17   18 1
    32   18   33 1
    33   18   34 1
    34   19   20 ar
    35   19   35 1
    36   20   21 ar
    37   20   36 1
    38   21   22 ar
    39   21   37 1
@<TRIPOS>MOLECULE
ZINC60280607
   37    39     0     0     0
SMALL
NO_CHARGES

@<TRIPOS>ATOM
      1 C1         -0.0157    1.3058    0.0092 C.2       1 <0>        -0.1654
      2 C2          0.0021   -0.0041    0.0020 C.2       1 <0>        -0.1738
      3 C3          1.3172   -0.7397   -0.0145 C.3       1 <0>         0.1320
      4 N1          1.3674   -1.6756    1.1115 N.pl3     1 <0>        -0.3406
      5 C4          1.8470   -1.3741    2.3681 C.cat     1 <0>        -0.0089
      6 C5          1.6836   -2.6599    3.1560 C.3       1 <0>         0.2860
      7 N2          1.0925   -3.5948    2.1861 N.pl3     1 <0>        -0.6687
      8 C6          0.9403   -2.9728    1.0708 C.cat     1 <0>         0.0458
      9 C7          0.3536   -3.6130   -0.1609 C.3       1 <0>        -0.0501
     10 C8         -0.8928   -4.4817    0.0200 C.3       1 <0>        -0.1839
     11 C9          0.4572   -5.1345   -0.2837 C.3       1 <0>        -0.1809
     12 C10         0.7537   -2.4505    4.3233 C.ar      1 <0>        -0.1119
     13 C11        -0.6148   -2.4598    4.1264 C.ar      1 <0>        -0.0516
     14 C12        -1.4689   -2.2683    5.1958 C.ar      1 <0>        -0.1501
     15 C13        -0.9541   -2.0671    6.4652 C.ar      1 <0>         0.1200
     16 C14         0.4171   -2.0579    6.6617 C.ar      1 <0>        -0.1304
     17 C15         1.2696   -2.2550    5.5906 C.ar      1 <0>        -0.0590
     18 Br1         1.1228   -1.7832    8.3944 Br        1 <0>        -0.0328
     19 F1         -1.7882   -1.8794    7.5112 F         1 <0>        -0.1268
     20 N3          2.3284   -0.2485    2.7820 N.pl3     1 <0>        -0.8212
     21 H1          0.9122    1.8585    0.0033 H         1 <0>         0.0989
     22 H2         -0.9582    1.8330    0.0166 H         1 <0>         0.1047
     23 H3         -0.9258   -0.5567    0.0079 H         1 <0>         0.1167
     24 H4          1.4134   -1.2911   -0.9498 H         1 <0>         0.0994
     25 H5          2.1349   -0.0241    0.0711 H         1 <0>         0.0901
     26 H6          0.4309   -3.0277   -1.0771 H         1 <0>         0.1059
     27 H7         -1.2885   -4.5901    1.0299 H         1 <0>         0.0921
     28 H8         -1.6359   -4.4679   -0.7773 H         1 <0>         0.0934
     29 H9          0.6022   -5.5503   -1.2808 H         1 <0>         0.0951
     30 H10         0.9496   -5.6725    0.5264 H         1 <0>         0.0918
     31 H11        -1.0165   -2.6164    3.1362 H         1 <0>         0.1364
     32 H12        -2.5378   -2.2754    5.0413 H         1 <0>         0.1405
     33 H13         2.3386   -2.2524    5.7438 H         1 <0>         0.1393
     34 H14         2.3812    0.5081    2.1772 H         1 <0>         0.3870
     35 H15         2.6519   -3.0235    3.5000 H         1 <0>         0.0542
     36 H16         2.6368   -0.1602    3.6974 H         1 <0>         0.4048
     37 H17         0.8548   -4.5192    2.3590 H         1 <0>         0.4220
@<TRIPOS>BOND
     1    1    2 2
     2    1   21 1
     3    1   22 1
     4    2    3 1
     5    2   23 1
     6    3   24 1
     7    3   25 1
     8    3    4 1
     9    4    8 1
    10    4    5 1
    11    5    6 1
    12    5   20 2
    13    6   12 1
    14    6   35 1
    15    6    7 1
    16    7    8 2
    17    7   37 1
    18    8    9 1
    19    9   11 1
    20    9   10 1
    21    9   26 1
    22   10   11 1
    23   10   27 1
    24   10   28 1
    25   11   29 1
    26   11   30 1
    27   12   17 ar
    28   12   13 ar
    29   13   14 ar
    30   13   31 1
    31   14   15 ar
    32   14   32 1
    33   15   16 ar
    34   15   19 1
    35   16   17 ar
    36   16   18 1
    37   17   33 1
    38   20   34 1
    39   20   36 1
@<TRIPOS>MOLECULE
ZINC12812995
   51    53     0     0     0
SMALL
USER_CHARGES
3-[benzyl-[2-(1-naphthylamino)-2-oxo-ethyl]amino]propanamide
@<TRIPOS>ATOM
      1 C1          1.2364    4.0998    0.2412 C.ar      1 <0>        -0.0803
      2 C2          2.1953    3.1437    0.5194 C.ar      1 <0>        -0.1123
      3 C3          1.8738    1.8012    0.4481 C.ar      1 <0>        -0.0908
      4 C4          0.5936    1.4147    0.0981 C.ar      1 <0>        -0.1652
      5 C5         -0.3638    2.3706   -0.1857 C.ar      1 <0>        -0.0933
      6 C6         -0.0437    3.7133   -0.1092 C.ar      1 <0>        -0.1119
      7 C7          0.2432   -0.0490    0.0200 C.3       1 <0>         0.0426
      8 C8         -1.5137    0.1389    1.6755 C.3       1 <0>         0.0013
      9 C9         -2.5628   -0.2001    0.6147 C.3       1 <0>        -0.1759
     10 C10        -3.8517    0.5108    0.9378 C.2       1 <0>         0.5232
     11 O1         -3.9241    1.2188    1.9199 O.2       1 <0>        -0.5260
     12 N1         -4.9241    0.3598    0.1355 N.am      1 <0>        -0.8446
     13 C11        -0.3671   -1.9704    1.3609 C.3       1 <0>        -0.0341
     14 C12        -0.4703   -2.4347    2.7909 C.2       1 <0>         0.4962
     15 O2         -0.3397   -1.6398    3.6975 O.2       1 <0>        -0.5041
     16 N2         -0.7078   -3.7334    3.0622 N.am      1 <0>        -0.6363
     17 C13        -0.9090   -4.1455    4.3809 C.ar      1 <0>         0.1180
     18 C14        -0.3250   -3.4561    5.4216 C.ar      1 <0>        -0.1095
     19 C15        -0.5193   -3.8586    6.7395 C.ar      1 <0>        -0.1063
     20 C16        -1.2896   -4.9411    7.0377 C.ar      1 <0>        -0.0982
     21 C17        -1.9033   -5.6711    6.0058 C.ar      1 <0>        -0.0405
     22 C18        -1.7169   -5.2681    4.6604 C.ar      1 <0>        -0.0539
     23 C19        -2.3271   -6.0009    3.6303 C.ar      1 <0>        -0.1255
     24 C20        -3.0959   -7.0821    3.9364 C.ar      1 <0>        -0.0980
     25 C21        -3.2834   -7.4768    5.2597 C.ar      1 <0>        -0.1140
     26 C22        -2.7039   -6.7927    6.2836 C.ar      1 <0>        -0.0943
     27 H1          1.4875    5.1487    0.2972 H         1 <0>         0.1368
     28 H2          3.1955    3.4457    0.7928 H         1 <0>         0.1373
     29 H3          2.6230    1.0542    0.6654 H         1 <0>         0.1324
     30 H4         -1.3628    2.0686   -0.4634 H         1 <0>         0.1265
     31 H5         -0.7928    4.4602   -0.3269 H         1 <0>         0.1363
     32 H6         -0.5363   -0.1965   -0.7275 H         1 <0>         0.1396
     33 H7          1.1283   -0.6200   -0.2605 H         1 <0>         0.1414
     34 H8         -1.8508   -0.2205    2.6478 H         1 <0>         0.1447
     35 H9         -1.3737    1.2191    1.7160 H         1 <0>         0.1449
     36 H10        -2.2065    0.1207   -0.3642 H         1 <0>         0.1185
     37 H11        -2.7343   -1.2764    0.6041 H         1 <0>         0.1149
     38 H12        -4.8662   -0.2064   -0.6500 H         1 <0>         0.4062
     39 H13        -5.7537    0.8174    0.3434 H         1 <0>         0.4156
     40 H14        -1.2626   -2.2696    0.8162 H         1 <0>         0.1617
     41 H15         0.5092   -2.4210    0.8949 H         1 <0>         0.1673
     42 H16        -0.7389   -4.3817    2.3414 H         1 <0>         0.4187
     43 H17         0.2907   -2.5940    5.2120 H         1 <0>         0.1489
     44 H18        -0.0517   -3.3030    7.5390 H         1 <0>         0.1330
     45 H19        -1.4292   -5.2381    8.0667 H         1 <0>         0.1350
     46 H20        -2.1905   -5.7063    2.6003 H         1 <0>         0.1184
     47 H21        -3.5676   -7.6417    3.1423 H         1 <0>         0.1283
     48 H22        -3.8980   -8.3382    5.4759 H         1 <0>         0.1305
     49 H23        -2.8585   -7.1098    7.3044 H         1 <0>         0.1354
     50 N3         -0.2212   -0.4996    1.3488 N.4       1 <0>        -0.3806
     51 H24         0.4730   -0.2275    2.0547 H         1 <0>         0.4421
@<TRIPOS>BOND
     1    1    6 ar
     2    1    2 ar
     3    1   27 1
     4    2    3 ar
     5    2   28 1
     6    3    4 ar
     7    3   29 1
     8    4    5 ar
     9    4    7 1
    10    5    6 ar
    11    5   30 1
    12    6   31 1
    13    7   32 1
    14    7   33 1
    15    7   50 1
    16    8    9 1
    17    8   34 1
    18    8   35 1
    19    8   50 1
    20    9   10 1
    21    9   36 1
    22    9   37 1
    23   10   11 2
    24   10   12 am
    25   12   38 1
    26   12   39 1
    27   13   14 1
    28   13   40 1
    29   13   41 1
    30   13   50 1
    31   14   15 2
    32   14   16 am
    33   16   17 1
    34   16   42 1
    35   17   22 ar
    36   17   18 ar
    37   18   19 ar
    38   18   43 1
    39   19   20 ar
    40   19   44 1
    41   20   21 ar
    42   20   45 1
    43   21   26 ar
    44   21   22 ar
    45   22   23 ar
    46   23   24 ar
    47   23   46 1
    48   24   25 ar
    49   24   47 1
    50   25   26 ar
    51   25   48 1
    52   26   49 1
    53   50   51 1
@<TRIPOS>MOLECULE
ZINC42360455
   40    41     0     0     0
SMALL
USER_CHARGES

@<TRIPOS>ATOM
      1 C1          1.6721   -2.1655    2.1954 C.3       1 <0>        -0.1116
      2 C2          0.7869   -1.7584    1.0457 C.ar      1 <0>        -0.0240
      3 C3          0.8924   -2.4064   -0.1712 C.ar      1 <0>        -0.1644
      4 C4          0.0825   -2.0364   -1.2286 C.ar      1 <0>        -0.0539
      5 C5         -0.8382   -1.0163   -1.0755 C.ar      1 <0>        -0.1898
      6 C6         -0.9511   -0.3612    0.1415 C.ar      1 <0>         0.2240
      7 C7         -0.1370   -0.7381    1.2099 C.ar      1 <0>         0.0317
      8 N1         -0.2496   -0.0837    2.4442 N.am      1 <0>        -0.6399
      9 C8         -0.4683   -0.7963    3.5671 C.2       1 <0>         0.4961
     10 O1         -0.6379   -1.9955    3.5011 O.2       1 <0>        -0.5055
     11 C9         -0.5020   -0.1030    4.9048 C.3       1 <0>        -0.0310
     12 N2         -0.7545   -1.0911    5.9621 N.4       1 <0>        -0.3708
     13 C10         0.3753   -2.0269    6.0378 C.3       1 <0>        -0.0658
     14 C11        -0.9064   -0.4017    7.2504 C.3       1 <0>         0.0607
     15 C12        -1.2865   -1.4005    8.3129 C.2       1 <0>        -0.1888
     16 C13        -2.6159   -1.6818    8.5678 C.2       1 <0>        -0.1212
     17 C14        -2.9232   -2.5860    9.5310 C.2       1 <0>        -0.1680
     18 S1         -1.3062   -3.0705   10.1120 S.3       1 <0>         0.1888
     19 C15        -0.3301   -2.0403    9.0289 C.2       1 <0>        -0.1432
     20 Br1        -4.6233   -3.1789   10.1089 Br        1 <0>         0.0688
     21 N3         -1.8816    0.6715    0.2988 N.pl3     1 <0>        -0.8753
     22 H1          1.2384   -3.0290    2.6998 H         1 <0>         0.0821
     23 H2          2.6616   -2.4242    1.8182 H         1 <0>         0.0730
     24 H3          1.7566   -1.3379    2.8996 H         1 <0>         0.0490
     25 H4          1.6100   -3.2039   -0.2961 H         1 <0>         0.1287
     26 H5          0.1695   -2.5453   -2.1772 H         1 <0>         0.1316
     27 H6         -1.4691   -0.7294   -1.9038 H         1 <0>         0.1308
     28 H7         -0.1702    0.8819    2.4903 H         1 <0>         0.4108
     29 H8          0.4557    0.3854    5.0851 H         1 <0>         0.1620
     30 H9         -1.2966    0.6431    4.9075 H         1 <0>         0.1608
     31 H10         0.4880   -2.5385    5.0819 H         1 <0>         0.1419
     32 H11         1.2883   -1.4767    6.2653 H         1 <0>         0.1212
     33 H12         0.1879   -2.7600    6.8223 H         1 <0>         0.1249
     34 H13         0.0358    0.0753    7.5205 H         1 <0>         0.1417
     35 H14        -1.6862    0.3553    7.1677 H         1 <0>         0.1398
     36 H15        -3.3976   -1.1890    8.0088 H         1 <0>         0.1500
     37 H16         0.7440   -1.9496    8.9623 H         1 <0>         0.2037
     38 H17        -2.5196    0.8611   -0.4069 H         1 <0>         0.4068
     39 H18        -1.8887    1.1980    1.1134 H         1 <0>         0.3921
     40 H19        -1.5996   -1.6004    5.7516 H         1 <0>         0.4322
@<TRIPOS>BOND
     1    1    2 1
     2    1   22 1
     3    1   23 1
     4    1   24 1
     5    2    7 ar
     6    2    3 ar
     7    3    4 ar
     8    3   25 1
     9    4    5 ar
    10    4   26 1
    11    5    6 ar
    12    5   27 1
    13    6    7 ar
    14    6   21 1
    15    7    8 1
    16    8    9 am
    17    8   28 1
    18    9   10 2
    19    9   11 1
    20   11   12 1
    21   11   29 1
    22   11   30 1
    23   12   13 1
    24   12   14 1
    25   12   40 1
    26   13   31 1
    27   13   32 1
    28   13   33 1
    29   14   15 1
    30   14   34 1
    31   14   35 1
    32   15   19 2
    33   15   16 1
    34   16   17 2
    35   16   36 1
    36   17   18 1
    37   17   20 1
    38   18   19 1
    39   19   37 1
    40   21   38 1
    41   21   39 1
@<TRIPOS>MOLECULE
ZINC57543754
   60    62     0     0     0
SMALL
USER_CHARGES

@<TRIPOS>ATOM
      1 C1         -1.4430    0.8696    0.5216 C.3       1 <0>        -0.1132
      2 C2         -0.6654   -0.3818    0.2045 C.ar      1 <0>        -0.1263
      3 C3         -0.8526   -1.0227   -1.0052 C.ar      1 <0>        -0.0803
      4 C4         -0.1418   -2.1700   -1.2997 C.ar      1 <0>        -0.1275
      5 C5          0.7638   -2.6833   -0.3793 C.ar      1 <0>         0.1585
      6 C6          0.9540   -2.0421    0.8361 C.ar      1 <0>        -0.1503
      7 C7          0.2429   -0.8864    1.1263 C.ar      1 <0>         0.1690
      8 N1          0.4364   -0.2332    2.3487 N.am      1 <0>        -0.6730
      9 C8          0.8239   -0.9336    3.4331 C.2       1 <0>         0.7075
     10 O1          1.0810   -2.1176    3.3320 O.2       1 <0>        -0.5663
     11 N2          0.9263   -0.3214    4.6294 N.am      1 <0>        -0.7411
     12 C9          1.3474   -1.0827    5.8081 C.3       1 <0>         0.1561
     13 C10         0.1305   -1.7667    6.4377 C.3       1 <0>        -0.1622
     14 C11         0.5638   -2.4943    7.7122 C.3       1 <0>        -0.0024
     15 N3          1.1305   -1.5294    8.6621 N.4       1 <0>        -0.3860
     16 C12         2.3395   -0.9218    8.0933 C.3       1 <0>        -0.0064
     17 C13         1.9746   -0.1337    6.8334 C.3       1 <0>        -0.1560
     18 C14         1.4730   -2.2193    9.9130 C.3       1 <0>        -0.0087
     19 C15         1.9470   -1.1958   10.9467 C.3       1 <0>        -0.1192
     20 C16         0.7910   -0.2594   11.3044 C.3       1 <0>        -0.1698
     21 C17         2.4212   -1.9245   12.2056 C.3       1 <0>        -0.1526
     22 N4          1.4828   -3.8459   -0.6779 N.am      1 <0>        -0.6700
     23 C18         1.8953   -4.0777   -1.9399 C.2       1 <0>         0.5445
     24 O2          1.5738   -3.3211   -2.8316 O.2       1 <0>        -0.5156
     25 C19         2.7560   -5.2770   -2.2429 C.3       1 <0>        -0.2004
     26 C20         4.2082   -5.0196   -2.6504 C.3       1 <0>        -0.1499
     27 C21         3.1916   -5.4852   -3.6948 C.3       1 <0>        -0.1433
     28 H1         -0.8862    1.7407    0.1764 H         1 <0>         0.0720
     29 H2         -2.4097    0.8338    0.0192 H         1 <0>         0.0748
     30 H3         -1.5957    0.9394    1.5986 H         1 <0>         0.0581
     31 H4         -1.5564   -0.6261   -1.7220 H         1 <0>         0.1333
     32 H5         -0.2903   -2.6686   -2.2461 H         1 <0>         0.1411
     33 H6          1.6570   -2.4393    1.5533 H         1 <0>         0.1534
     34 H7          0.2917    0.7236    2.4156 H         1 <0>         0.4102
     35 H8          0.7211    0.6232    4.7100 H         1 <0>         0.4034
     36 H9          2.0784   -1.8357    5.5136 H         1 <0>         0.1081
     37 H10        -0.6213   -1.0170    6.6843 H         1 <0>         0.0899
     38 H11        -0.2883   -2.4851    5.7330 H         1 <0>         0.1195
     39 H12        -0.3003   -2.9825    8.1629 H         1 <0>         0.1345
     40 H13         1.3153   -3.2438    7.4645 H         1 <0>         0.1330
     41 H14         2.7864   -0.2491    8.8254 H         1 <0>         0.1378
     42 H15         3.0532   -1.7049    7.8375 H         1 <0>         0.1343
     43 H16         2.8738    0.3151    6.4116 H         1 <0>         0.1207
     44 H17         1.2610    0.6499    7.0882 H         1 <0>         0.0942
     45 H18         0.5940   -2.7396   10.2934 H         1 <0>         0.1326
     46 H19         2.2685   -2.9402    9.7242 H         1 <0>         0.1320
     47 H20         2.7703   -0.6145   10.5315 H         1 <0>         0.0935
     48 H21        -0.0322   -0.8407   11.7196 H         1 <0>         0.0736
     49 H22         1.1287    0.4698   12.0408 H         1 <0>         0.0839
     50 H23         0.4532    0.2597   10.4075 H         1 <0>         0.0497
     51 H24         3.2447   -2.5916   11.9508 H         1 <0>         0.0679
     52 H25         2.7589   -1.1953   12.9421 H         1 <0>         0.0777
     53 H26         1.5980   -2.5058   12.6209 H         1 <0>         0.0684
     54 H27         1.6844   -4.4850    0.0234 H         1 <0>         0.4127
     55 H28         2.5503   -6.1661   -1.6468 H         1 <0>         0.1276
     56 H29         4.5409   -3.9828   -2.6992 H         1 <0>         0.1003
     57 H30         4.9581   -5.7393   -2.3221 H         1 <0>         0.1081
     58 H31         3.2728   -6.5113   -4.0536 H         1 <0>         0.1078
     59 H32         2.8556   -4.7548   -4.4307 H         1 <0>         0.1104
     60 H33         0.4510   -0.8084    8.8533 H         1 <0>         0.4205
@<TRIPOS>BOND
     1    1    2 1
     2    1   28 1
     3    1   29 1
     4    1   30 1
     5    2    7 ar
     6    2    3 ar
     7    3    4 ar
     8    3   31 1
     9    4    5 ar
    10    4   32 1
    11    5    6 ar
    12    5   22 1
    13    6    7 ar
    14    6   33 1
    15    7    8 1
    16    8    9 am
    17    8   34 1
    18    9   10 2
    19    9   11 am
    20   11   12 1
    21   11   35 1
    22   12   17 1
    23   12   13 1
    24   12   36 1
    25   13   14 1
    26   13   37 1
    27   13   38 1
    28   14   15 1
    29   14   39 1
    30   14   40 1
    31   15   16 1
    32   15   18 1
    33   15   60 1
    34   16   17 1
    35   16   41 1
    36   16   42 1
    37   17   43 1
    38   17   44 1
    39   18   19 1
    40   18   45 1
    41   18   46 1
    42   19   20 1
    43   19   21 1
    44   19   47 1
    45   20   48 1
    46   20   49 1
    47   20   50 1
    48   21   51 1
    49   21   52 1
    50   21   53 1
    51   22   23 am
    52   22   54 1
    53   23   24 2
    54   23   25 1
    55   25   27 1
    56   25   26 1
    57   25   55 1
    58   26   27 1
    59   26   56 1
    60   26   57 1
    61   27   58 1
    62   27   59 1
@<TRIPOS>MOLECULE
ZINC62385280
   61    64     0     0     0
SMALL
USER_CHARGES

@<TRIPOS>ATOM
      1 C1         -0.0146    1.4113   -0.0287 C.ar      1 <0>        -0.0867
      2 C2          1.1472    2.1505   -0.1308 C.ar      1 <0>        -0.1308
      3 C3          2.1598    1.7368   -0.9857 C.ar      1 <0>         0.1531
      4 C4          2.0038    0.5795   -1.7379 C.ar      1 <0>        -0.1009
      5 C5          0.8425   -0.1590   -1.6363 C.ar      1 <0>        -0.1053
      6 C6         -0.1704    0.2548   -0.7808 C.ar      1 <0>         0.1339
      7 N1         -1.3493   -0.4953   -0.6765 N.am      1 <0>        -0.6781
      8 C7         -2.5242    0.1243   -0.4481 C.2       1 <0>         0.7066
      9 O1         -2.5769    1.3389   -0.4266 O.2       1 <0>        -0.5659
     10 N2         -3.6407   -0.6024   -0.2435 N.am      1 <0>        -0.7410
     11 C8         -4.9178    0.0711    0.0048 C.3       1 <0>         0.1557
     12 C9         -5.0440    0.3960    1.4960 C.3       1 <0>        -0.1619
     13 C10        -6.4127    1.0269    1.7609 C.3       1 <0>        -0.0028
     14 N3         -7.4718    0.0881    1.3718 N.4       1 <0>        -0.3856
     15 C11        -7.4012   -0.1723   -0.0710 C.3       1 <0>        -0.0061
     16 C12        -6.0706   -0.8494   -0.4064 C.3       1 <0>        -0.1557
     17 C13        -8.7816    0.6666    1.7000 C.3       1 <0>        -0.0083
     18 C14        -9.8764   -0.3705    1.4415 C.3       1 <0>        -0.1138
     19 C15       -11.2484    0.2722    1.6545 C.3       1 <0>        -0.1117
     20 C16       -12.3431   -0.7649    1.3961 C.3       1 <0>        -0.1223
     21 C17       -12.1735   -1.9376    2.3641 C.3       1 <0>        -0.1269
     22 C18       -10.8015   -2.5803    2.1511 C.3       1 <0>        -0.1200
     23 C19        -9.7067   -1.5432    2.4095 C.3       1 <0>        -0.1279
     24 C20         3.1054    0.1330   -2.6637 C.3       1 <0>        -0.0781
     25 C21         3.8087    1.3577   -3.2497 C.3       1 <0>        -0.1396
     26 C22         4.1544    2.3252   -2.1500 C.2       1 <0>         0.5196
     27 O2          5.1796    2.9697   -2.2192 O.2       1 <0>        -0.5197
     28 N4          3.3393    2.4840   -1.0913 N.am      1 <0>        -0.6650
     29 H1         -0.8005    1.7306    0.6398 H         1 <0>         0.1389
     30 H2          1.2680    3.0504    0.4539 H         1 <0>         0.1344
     31 H3          0.7215   -1.0586   -2.2216 H         1 <0>         0.1341
     32 H4         -1.3198   -1.4604   -0.7686 H         1 <0>         0.4093
     33 H5         -3.5986   -1.5713   -0.2606 H         1 <0>         0.4035
     34 H6         -4.9626    0.9928   -0.5753 H         1 <0>         0.1083
     35 H7         -4.9470   -0.5207    2.0777 H         1 <0>         0.0899
     36 H8         -4.2590    1.0953    1.7839 H         1 <0>         0.1191
     37 H9         -6.5058    1.2597    2.8217 H         1 <0>         0.1345
     38 H10        -6.5085    1.9436    1.1790 H         1 <0>         0.1333
     39 H11        -8.2241   -0.8249   -0.3626 H         1 <0>         0.1374
     40 H12        -7.4759    0.7699   -0.6139 H         1 <0>         0.1344
     41 H13        -6.0193   -1.0402   -1.4783 H         1 <0>         0.1205
     42 H14        -5.9949   -1.7919    0.1359 H         1 <0>         0.0941
     43 H15        -8.7975    0.9576    2.7503 H         1 <0>         0.1326
     44 H16        -8.9578    1.5437    1.0773 H         1 <0>         0.1325
     45 H17        -9.7997   -0.7319    0.4160 H         1 <0>         0.0942
     46 H18       -11.3251    0.6336    2.6800 H         1 <0>         0.0746
     47 H19       -11.3692    1.1076    0.9649 H         1 <0>         0.0741
     48 H20       -13.3206   -0.3070    1.5478 H         1 <0>         0.0744
     49 H21       -12.2664   -1.1263    0.3706 H         1 <0>         0.0664
     50 H22       -12.2502   -1.5762    3.3896 H         1 <0>         0.0667
     51 H23       -12.9534   -2.6764    2.1800 H         1 <0>         0.0713
     52 H24       -10.6806   -3.4157    2.8407 H         1 <0>         0.0727
     53 H25       -10.7248   -2.9417    1.1256 H         1 <0>         0.0666
     54 H26        -8.7293   -2.0011    2.2578 H         1 <0>         0.0546
     55 H27        -9.7834   -1.1818    3.4350 H         1 <0>         0.0792
     56 H28         3.8254   -0.4680   -2.1082 H         1 <0>         0.0877
     57 H29         2.6814   -0.4634   -3.4716 H         1 <0>         0.0941
     58 H30         4.7215    1.0434   -3.7556 H         1 <0>         0.1133
     59 H31         3.1485    1.8456   -3.9668 H         1 <0>         0.1055
     60 H32         3.5703    3.1202   -0.3965 H         1 <0>         0.4128
     61 H33        -7.3534   -0.7783    1.8752 H         1 <0>         0.4203
@<TRIPOS>BOND
     1    1    6 ar
     2    1    2 ar
     3    1   29 1
     4    2    3 ar
     5    2   30 1
     6    3   28 1
     7    3    4 ar
     8    4    5 ar
     9    4   24 1
    10    5    6 ar
    11    5   31 1
    12    6    7 1
    13    7    8 am
    14    7   32 1
    15    8    9 2
    16    8   10 am
    17   10   11 1
    18   10   33 1
    19   11   16 1
    20   11   12 1
    21   11   34 1
    22   12   13 1
    23   12   35 1
    24   12   36 1
    25   13   14 1
    26   13   37 1
    27   13   38 1
    28   14   15 1
    29   14   17 1
    30   14   61 1
    31   15   16 1
    32   15   39 1
    33   15   40 1
    34   16   41 1
    35   16   42 1
    36   17   18 1
    37   17   43 1
    38   17   44 1
    39   18   23 1
    40   18   19 1
    41   18   45 1
    42   19   20 1
    43   19   46 1
    44   19   47 1
    45   20   21 1
    46   20   48 1
    47   20   49 1
    48   21   22 1
    49   21   50 1
    50   21   51 1
    51   22   23 1
    52   22   52 1
    53   22   53 1
    54   23   54 1
    55   23   55 1
    56   24   25 1
    57   24   56 1
    58   24   57 1
    59   25   26 1
    60   25   58 1
    61   25   59 1
    62   26   27 2
    63   26   28 am
    64   28   60 1
@<TRIPOS>MOLECULE
ZINC67066552
   54    56     0     0     0
SMALL
USER_CHARGES

@<TRIPOS>ATOM
      1 C1         -0.0184    1.5028    0.0103 C.3       1 <0>        -0.1146
      2 C2          0.0021   -0.0041    0.0020 C.2       1 <0>        -0.0051
      3 C3          0.0067   -0.7285   -1.1658 C.2       1 <0>        -0.1837
      4 C4          0.0259   -2.0828   -1.1013 C.2       1 <0>        -0.1968
      5 S1          0.0382   -2.4164    0.5452 S.3       1 <0>         0.1804
      6 C5          0.0233   -0.7477    1.1721 C.2       1 <0>        -0.2759
      7 C6          0.0302   -0.2828    2.5623 C.2       1 <0>         0.6153
      8 O1          0.0163    0.9096    2.8053 O.2       1 <0>        -0.5048
      9 N1          0.0519   -1.1760    3.5714 N.am      1 <0>        -0.5320
     10 N2          0.0584   -0.7317    4.9001 N.am      1 <0>        -0.5219
     11 C7          0.0802   -1.6248    5.9092 C.2       1 <0>         0.7169
     12 O2          0.0859   -1.2392    7.0623 O.2       1 <0>        -0.5585
     13 N3          0.0956   -2.9454    5.6401 N.am      1 <0>        -0.7479
     14 C8          0.1192   -3.9162    6.7370 C.3       1 <0>         0.1450
     15 C9          0.1330   -5.3343    6.1627 C.3       1 <0>        -0.1240
     16 H1         -0.7134   -5.4619    5.4879 H         1 <0>         0.1033
     17 C10         1.4382   -5.5623    5.3948 C.3       1 <0>        -0.1363
     18 C11         1.4767   -7.0080    4.8913 C.3       1 <0>        -0.1433
     19 C12         1.3292   -7.9605    6.0798 C.3       1 <0>        -0.0148
     20 N4          0.0507   -7.7103    6.7561 N.4       1 <0>        -0.3796
     21 C13         0.0341   -6.3487    7.3041 C.3       1 <0>        -0.0012
     22 C14        -0.1216   -8.6780    7.8478 C.3       1 <0>         0.0443
     23 C15        -0.2382  -10.0667    7.2744 C.ar      1 <0>        -0.1620
     24 C16        -1.4790  -10.5719    6.9336 C.ar      1 <0>        -0.0938
     25 C17        -1.5859  -11.8458    6.4076 C.ar      1 <0>        -0.1128
     26 C18        -0.4520  -12.6143    6.2220 C.ar      1 <0>        -0.0836
     27 C19         0.7889  -12.1088    6.5620 C.ar      1 <0>        -0.1134
     28 C20         0.8963  -10.8333    7.0840 C.ar      1 <0>        -0.0975
     29 H2          1.0042    1.8801    0.0026 H         1 <0>         0.0825
     30 H3         -0.5455    1.8639   -0.8728 H         1 <0>         0.0729
     31 H4         -0.5286    1.8543    0.9071 H         1 <0>         0.0907
     32 H5         -0.0051   -0.2261   -2.1218 H         1 <0>         0.1465
     33 H6          0.0316   -2.7861   -1.9208 H         1 <0>         0.1945
     34 H7          0.0630   -2.1264    3.3777 H         1 <0>         0.4141
     35 H8          0.0474    0.2187    5.0937 H         1 <0>         0.4502
     36 H9          0.0910   -3.2530    4.7202 H         1 <0>         0.3921
     37 H10         1.0129   -3.7601    7.3412 H         1 <0>         0.0840
     38 H11        -0.7668   -3.7843    7.3580 H         1 <0>         0.0836
     39 H12         1.4861   -4.8795    4.5466 H         1 <0>         0.0920
     40 H13         2.2861   -5.3839    6.0561 H         1 <0>         0.0893
     41 H14         0.6582   -7.1712    4.1902 H         1 <0>         0.0883
     42 H15         2.4274   -7.1942    4.3915 H         1 <0>         0.1146
     43 H16         1.3564   -8.9907    5.7248 H         1 <0>         0.1328
     44 H17         2.1483   -7.7966    6.7800 H         1 <0>         0.1298
     45 H18         0.8803   -6.2195    7.9788 H         1 <0>         0.1357
     46 H19        -0.8943   -6.1887    7.8523 H         1 <0>         0.1369
     47 H20         0.7397   -8.6311    8.5142 H         1 <0>         0.1365
     48 H21        -1.0265   -8.4384    8.4063 H         1 <0>         0.1382
     49 H22        -2.3649   -9.9714    7.0786 H         1 <0>         0.1313
     50 H23        -2.5554  -12.2407    6.1420 H         1 <0>         0.1363
     51 H24        -0.5356  -13.6099    5.8117 H         1 <0>         0.1361
     52 H25         1.6748  -12.7094    6.4173 H         1 <0>         0.1363
     53 H26         1.8661  -10.4370    7.3461 H         1 <0>         0.1310
     54 H27        -0.7044   -7.8143    6.0949 H         1 <0>         0.4220
@<TRIPOS>BOND
     1    1    2 1
     2    1   29 1
     3    1   30 1
     4    1   31 1
     5    2    6 2
     6    2    3 1
     7    3    4 2
     8    3   32 1
     9    4    5 1
    10    4   33 1
    11    5    6 1
    12    6    7 1
    13    7    8 2
    14    7    9 am
    15    9   10 1
    16    9   34 1
    17   10   11 am
    18   10   35 1
    19   11   12 2
    20   11   13 am
    21   13   14 1
    22   13   36 1
    23   14   15 1
    24   14   37 1
    25   14   38 1
    26   15   16 1
    27   15   21 1
    28   15   17 1
    29   17   18 1
    30   17   39 1
    31   17   40 1
    32   18   19 1
    33   18   41 1
    34   18   42 1
    35   19   20 1
    36   19   43 1
    37   19   44 1
    38   20   21 1
    39   20   22 1
    40   20   54 1
    41   21   45 1
    42   21   46 1
    43   22   23 1
    44   22   47 1
    45   22   48 1
    46   23   28 ar
    47   23   24 ar
    48   24   25 ar
    49   24   49 1
    50   25   26 ar
    51   25   50 1
    52   26   27 ar
    53   26   51 1
    54   27   28 ar
    55   27   52 1
    56   28   53 1
@<TRIPOS>MOLECULE
ZINC04961466
   45    48     0     0     0
SMALL
USER_CHARGES
2-methyl-3-(1-phenylsulfonyl-3,6-dihydro-2H-pyridin-4-yl)-1H-indole
@<TRIPOS>ATOM
      1 C1         -4.1445    1.1594    2.5616 C.3       1 <0>        -0.0931
      2 C2         -3.3489    2.3151    3.1115 C.2       1 <0>         0.0946
      3 C3         -2.2694    2.8775    2.5097 C.2       1 <0>        -0.1492
      4 C4         -1.8167    3.9683    3.3896 C.ar      1 <0>        -0.0890
      5 C5         -0.7814    4.8991    3.3227 C.ar      1 <0>        -0.0708
      6 C6         -0.6199    5.8089    4.3302 C.ar      1 <0>        -0.1436
      7 C7         -1.4802    5.8132    5.4192 C.ar      1 <0>        -0.0997
      8 C8         -2.5096    4.9017    5.5044 C.ar      1 <0>        -0.1296
      9 C9         -2.6908    3.9668    4.4895 C.ar      1 <0>         0.0942
     10 N1         -3.6029    2.9530    4.2907 N.pl3     1 <0>        -0.5902
     11 H1         -4.3235    2.7274    4.8997 H         1 <0>         0.4147
     12 C10        -1.6703    2.4777    1.2213 C.2       1 <0>        -0.0270
     13 C11        -0.7190    1.5720    1.2430 C.2       1 <0>        -0.1623
     14 C12        -0.0127    1.0858    0.0080 C.3       1 <0>         0.1578
     15 N2         -0.7261    1.5740   -1.1808 N.pl3     1 <0>        -0.9988
     16 C13        -1.1825    2.9745   -1.1682 C.3       1 <0>         0.1199
     17 C14        -2.1878    3.1331   -0.0246 C.3       1 <0>        -0.0975
     18 S1         -1.0060    0.5888   -2.4821 S.o2      1 <0>         2.6924
     19 O1         -1.1755    1.4402   -3.6071 O.2       1 <0>        -0.9525
     20 O2         -0.0166   -0.4303   -2.4402 O.2       1 <0>        -0.9525
     21 C15        -2.5566   -0.2033   -2.2119 C.ar      1 <0>        -0.6753
     22 C16        -2.6072   -1.4159   -1.5500 C.ar      1 <0>        -0.0196
     23 C17        -3.8241   -2.0349   -1.3337 C.ar      1 <0>        -0.1394
     24 C18        -4.9894   -1.4466   -1.7885 C.ar      1 <0>        -0.0637
     25 C19        -4.9382   -0.2366   -2.4551 C.ar      1 <0>        -0.1398
     26 C20        -3.7218    0.3850   -2.6667 C.ar      1 <0>        -0.0207
     27 H2         -3.7192    0.2221    2.9204 H         1 <0>         0.0781
     28 H3         -5.1793    1.2397    2.8943 H         1 <0>         0.0684
     29 H4         -4.1104    1.1805    1.4723 H         1 <0>         0.0842
     30 H5         -0.1085    4.9011    2.4780 H         1 <0>         0.1209
     31 H6          0.1828    6.5295    4.2782 H         1 <0>         0.1227
     32 H7         -1.3411    6.5380    6.2077 H         1 <0>         0.1253
     33 H8         -3.1735    4.9123    6.3561 H         1 <0>         0.1193
     34 H9         -0.4298    1.1543    2.1961 H         1 <0>         0.1192
     35 H10         0.0021   -0.0041    0.0020 H         1 <0>         0.0954
     36 H11         1.0095    1.4640    0.0003 H         1 <0>         0.0877
     37 H12        -0.3327    3.6376   -1.0065 H         1 <0>         0.0839
     38 H13        -1.6627    3.2142   -2.1169 H         1 <0>         0.0977
     39 H14        -2.3514    4.1936    0.1671 H         1 <0>         0.0869
     40 H15        -3.1321    2.6681   -0.3077 H         1 <0>         0.0770
     41 H16        -1.6964   -1.8777   -1.1985 H         1 <0>         0.1387
     42 H17        -3.8641   -2.9804   -0.8133 H         1 <0>         0.1328
     43 H18        -5.9397   -1.9324   -1.6235 H         1 <0>         0.1307
     44 H19        -5.8486    0.2229   -2.8108 H         1 <0>         0.1328
     45 H20        -3.6818    1.3302   -3.1878 H         1 <0>         0.1388
@<TRIPOS>BOND
     1    1    2 1
     2    1   27 1
     3    1   28 1
     4    1   29 1
     5    2   10 1
     6    2    3 2
     7    3    4 1
     8    3   12 1
     9    4    9 ar
    10    4    5 ar
    11    5    6 ar
    12    5   30 1
    13    6    7 ar
    14    6   31 1
    15    7    8 ar
    16    7   32 1
    17    8    9 ar
    18    8   33 1
    19    9   10 1
    20   10   11 1
    21   12   17 1
    22   12   13 2
    23   13   14 1
    24   13   34 1
    25   14   15 1
    26   14   35 1
    27   14   36 1
    28   15   16 1
    29   15   18 1
    30   16   17 1
    31   16   37 1
    32   16   38 1
    33   17   39 1
    34   17   40 1
    35   18   19 2
    36   18   20 2
    37   18   21 1
    38   21   26 ar
    39   21   22 ar
    40   22   23 ar
    41   22   41 1
    42   23   24 ar
    43   23   42 1
    44   24   25 ar
    45   24   43 1
    46   25   26 ar
    47   25   44 1
    48   26   45 1
@<TRIPOS>MOLECULE
ZINC20884192
   50    53     0     0     0
SMALL
USER_CHARGES
(4S,7R)-4-(2-methoxyphenyl)-7-(p-tolyl)-1,3,4,6,7,8-hexahydroquinoline-2,5-dione
@<TRIPOS>ATOM
      1 C1         -7.3035   10.9523    3.8847 C.3       1 <0>        -0.1206
      2 C2         -6.5825    9.6387    3.7240 C.ar      1 <0>        -0.0835
      3 C3         -6.9985    8.7347    2.7645 C.ar      1 <0>        -0.1179
      4 C4         -6.3374    7.5297    2.6175 C.ar      1 <0>        -0.1068
      5 C5         -5.2603    7.2286    3.4299 C.ar      1 <0>        -0.0890
      6 C6         -4.8475    8.1304    4.3929 C.ar      1 <0>        -0.1093
      7 C7         -5.5054    9.3377    4.5364 C.ar      1 <0>        -0.1184
      8 C8         -4.5398    5.9147    3.2699 C.3       1 <0>        -0.0350
      9 H1         -5.0238    5.3556    2.4555 H         1 <0>         0.0924
     10 C9         -4.6166    5.1241    4.5779 C.3       1 <0>        -0.0918
     11 C10        -3.8522    3.8317    4.4345 C.2       1 <0>         0.2218
     12 C11        -2.7789    3.7494    3.6205 C.2       1 <0>        -0.2696
     13 C12        -2.0223    2.4474    3.5012 C.3       1 <0>         0.0128
     14 H2         -0.9897    2.6561    3.1846 H         1 <0>         0.1190
     15 C13        -2.0273    1.7310    4.8527 C.3       1 <0>        -0.1372
     16 C14        -3.4338    1.7103    5.3944 C.2       1 <0>         0.5273
     17 O1         -3.8155    0.7646    6.0501 O.2       1 <0>        -0.5078
     18 N1         -4.2659    2.7379    5.1515 N.am      1 <0>        -0.6744
     19 C15        -2.6845    1.5741    2.4669 C.ar      1 <0>        -0.1101
     20 C16        -3.9993    1.1827    2.6318 C.ar      1 <0>        -0.0877
     21 C17        -4.6076    0.3820    1.6831 C.ar      1 <0>        -0.1554
     22 C18        -3.9021   -0.0296    0.5672 C.ar      1 <0>        -0.0793
     23 C19        -2.5894    0.3641    0.3946 C.ar      1 <0>        -0.2078
     24 C20        -1.9749    1.1630    1.3482 C.ar      1 <0>         0.1418
     25 O2         -0.6816    1.5467    1.1837 O.3       1 <0>        -0.3056
     26 C21        -0.0127    1.0858    0.0080 C.3       1 <0>         0.0241
     27 C22        -2.3423    4.8549    2.8715 C.2       1 <0>         0.4040
     28 O3         -1.3658    4.7453    2.1571 O.2       1 <0>        -0.4574
     29 C23        -3.0658    6.1731    2.9406 C.3       1 <0>        -0.1606
     30 H3         -8.1256   11.0108    3.1562 H         1 <0>         0.0660
     31 H4         -6.6002   11.7802    3.7113 H         1 <0>         0.0710
     32 H5         -7.7109   11.0246    4.9039 H         1 <0>         0.0708
     33 H6         -7.8403    8.9698    2.1300 H         1 <0>         0.1227
     34 H7         -6.6626    6.8232    1.8681 H         1 <0>         0.1229
     35 H8         -4.0087    7.8933    5.0305 H         1 <0>         0.1223
     36 H9         -5.1806   10.0438    5.2863 H         1 <0>         0.1225
     37 H10        -4.1781    5.7193    5.3924 H         1 <0>         0.1054
     38 H11        -5.6685    4.9023    4.8111 H         1 <0>         0.0950
     39 H12        -1.6655    0.7004    4.7227 H         1 <0>         0.1138
     40 H13        -1.3686    2.2652    5.5533 H         1 <0>         0.1109
     41 H14        -5.2944    2.6910    5.5388 H         1 <0>         0.4393
     42 H15        -4.5522    1.5023    3.5028 H         1 <0>         0.1255
     43 H16        -5.6353    0.0771    1.8139 H         1 <0>         0.1223
     44 H17        -4.3794   -0.6554   -0.1723 H         1 <0>         0.1248
     45 H18        -2.0405    0.0467   -0.4796 H         1 <0>         0.1291
     46 H19         1.0193    1.4666    0.0002 H         1 <0>         0.1029
     47 H20        -0.5447    1.4501   -0.8832 H         1 <0>         0.0556
     48 H21         0.0022   -0.0141    0.0020 H         1 <0>         0.0552
     49 H22        -2.9915    6.6889    1.9719 H         1 <0>         0.1001
     50 H23        -2.6194    6.8012    3.7256 H         1 <0>         0.1039
@<TRIPOS>BOND
     1    1    2 1
     2    1   30 1
     3    1   31 1
     4    1   32 1
     5    2    7 ar
     6    2    3 ar
     7    3    4 ar
     8    3   33 1
     9    4    5 ar
    10    4   34 1
    11    5    6 ar
    12    5    8 1
    13    6    7 ar
    14    6   35 1
    15    7   36 1
    16    8    9 1
    17    8   29 1
    18    8   10 1
    19   10   11 1
    20   10   37 1
    21   10   38 1
    22   11   18 1
    23   11   12 2
    24   12   13 1
    25   12   27 1
    26   13   14 1
    27   13   15 1
    28   13   19 1
    29   15   16 1
    30   15   39 1
    31   15   40 1
    32   16   17 2
    33   16   18 am
    34   18   41 1
    35   19   24 ar
    36   19   20 ar
    37   20   21 ar
    38   20   42 1
    39   21   22 ar
    40   21   43 1
    41   22   23 ar
    42   22   44 1
    43   23   24 ar
    44   23   45 1
    45   24   25 1
    46   25   26 1
    47   26   46 1
    48   26   47 1
    49   26   48 1
    50   27   28 2
    51   27   29 1
    52   29   49 1
    53   29   50 1
@<TRIPOS>MOLECULE
ZINC36759230
   40    42     0     0     0
SMALL
USER_CHARGES

@<TRIPOS>ATOM
      1 C1         -0.0184    1.5028    0.0103 C.3       1 <0>        -0.0754
      2 C2          0.0021   -0.0041    0.0020 C.2       1 <0>         0.1000
      3 C3          0.0079   -0.8146   -1.1367 C.2       1 <0>        -0.2631
      4 C4          0.0279   -2.1121   -0.7260 C.2       1 <0>         0.3096
      5 N1          0.0343   -2.1092    0.6350 N.pl3     1 <0>        -0.3467
      6 N2          0.0230   -0.7744    1.0598 N.2       1 <0>        -0.2805
      7 C5          0.0535   -3.2396    1.4634 C.ar      1 <0>         0.1689
      8 C6         -0.6174   -4.3938    1.0810 C.ar      1 <0>        -0.1394
      9 C7         -0.5967   -5.5064    1.8987 C.ar      1 <0>        -0.0818
     10 C8          0.0914   -5.4725    3.0978 C.ar      1 <0>        -0.0961
     11 C9          0.7609   -4.3243    3.4819 C.ar      1 <0>        -0.0672
     12 C10         0.7479   -3.2094    2.6649 C.ar      1 <0>        -0.0846
     13 Br1         1.7005   -4.2826    5.1224 Br        1 <0>        -0.0301
     14 N3          0.0393   -3.2379   -1.5487 N.am      1 <0>        -0.6527
     15 C11         0.0310   -3.0934   -2.8887 C.2       1 <0>         0.5250
     16 O1          0.0136   -1.9841   -3.3789 O.2       1 <0>        -0.4949
     17 C12         0.0432   -4.3101   -3.7778 C.3       1 <0>        -0.1012
     18 H1         -0.8367   -4.9207   -3.5754 H         1 <0>         0.1071
     19 C13         0.0409   -3.8740   -5.2485 C.3       1 <0>        -0.1008
     20 C14        -0.1265   -5.1191   -6.1222 C.3       1 <0>        -0.0949
     21 C15         0.8481   -6.1801   -5.7023 C.2       1 <0>        -0.1486
     22 C16         1.4704   -6.1851   -4.5673 C.2       1 <0>        -0.1594
     23 C17         1.3090   -5.1281   -3.5129 C.3       1 <0>        -0.0834
     24 H2          1.0042    1.8801    0.0026 H         1 <0>         0.0825
     25 H3         -0.5455    1.8639   -0.8728 H         1 <0>         0.0832
     26 H4         -0.5286    1.8543    0.9071 H         1 <0>         0.0764
     27 H5         -0.0022   -0.4720   -2.1609 H         1 <0>         0.1802
     28 H6         -1.1554   -4.4211    0.1449 H         1 <0>         0.1321
     29 H7         -1.1187   -6.4040    1.6016 H         1 <0>         0.1465
     30 H8          0.1059   -6.3438    3.7357 H         1 <0>         0.1432
     31 H9          1.2744   -2.3147    2.9628 H         1 <0>         0.1466
     32 H10         0.0531   -4.1250   -1.1566 H         1 <0>         0.4118
     33 H11        -0.7872   -3.1878   -5.4259 H         1 <0>         0.0797
     34 H12         0.9847   -3.3835   -5.4867 H         1 <0>         0.0750
     35 H13        -1.1424   -5.4999   -6.0176 H         1 <0>         0.0776
     36 H14         0.0529   -4.8557   -7.1646 H         1 <0>         0.0804
     37 H15         1.0423   -6.9901   -6.3898 H         1 <0>         0.1076
     38 H16         2.1457   -7.0029   -4.3636 H         1 <0>         0.1097
     39 H17         2.1762   -4.4680   -3.5312 H         1 <0>         0.0815
     40 H18         1.2364   -5.5987   -2.5324 H         1 <0>         0.0761
@<TRIPOS>BOND
     1    1    2 1
     2    1   24 1
     3    1   25 1
     4    1   26 1
     5    2    6 2
     6    2    3 1
     7    3    4 2
     8    3   27 1
     9    4    5 1
    10    4   14 1
    11    5    6 1
    12    5    7 1
    13    7   12 ar
    14    7    8 ar
    15    8    9 ar
    16    8   28 1
    17    9   10 ar
    18    9   29 1
    19   10   11 ar
    20   10   30 1
    21   11   12 ar
    22   11   13 1
    23   12   31 1
    24   14   15 am
    25   14   32 1
    26   15   16 2
    27   15   17 1
    28   17   18 1
    29   17   23 1
    30   17   19 1
    31   19   20 1
    32   19   33 1
    33   19   34 1
    34   20   21 1
    35   20   35 1
    36   20   36 1
    37   21   22 2
    38   21   37 1
    39   22   23 1
    40   22   38 1
    41   23   39 1
    42   23   40 1
@<TRIPOS>MOLECULE
ZINC58758703
   37    39     0     0     0
SMALL
USER_CHARGES

@<TRIPOS>ATOM
      1 C1          0.1478    1.3823    0.6245 C.ar      1 <0>        -0.0928
      2 C2          1.1759    2.0872    0.0133 C.ar      1 <0>         0.1795
      3 C3          2.2199    1.4010   -0.5948 C.ar      1 <0>        -0.0535
      4 C4          2.2326    0.0187   -0.5899 C.ar      1 <0>        -0.0693
      5 C5          1.2068   -0.6815    0.0194 C.ar      1 <0>        -0.0385
      6 C6          0.1651    0.0002    0.6267 C.ar      1 <0>        -0.0074
      7 Cl1        -1.1197   -0.8820    1.3912 Cl        1 <0>        -0.0305
      8 Cl2         1.2251   -2.4174    0.0229 Cl        1 <0>        -0.0327
      9 Cl3         3.5071    2.2788   -1.3606 Cl        1 <0>        -0.0407
     10 N1          1.1606    3.4873    0.0092 N.am      1 <0>        -0.6696
     11 C7         -0.0108    4.1481   -0.0782 C.2       1 <0>         0.5098
     12 O1         -1.0561    3.5330   -0.0717 O.2       1 <0>        -0.4888
     13 C8         -0.0219    5.6514   -0.1841 C.3       1 <0>         0.1239
     14 H1          0.5293    5.9645   -1.0708 H         1 <0>         0.1092
     15 C9          0.6168    6.2710    1.0768 C.3       1 <0>        -0.1282
     16 C10        -0.2680    7.5187    1.3371 C.3       1 <0>        -0.1308
     17 C11        -1.6650    7.0040    0.9093 C.3       1 <0>         0.0995
     18 N2         -1.4075    6.1372   -0.2591 N.am      1 <0>        -0.6036
     19 C12        -2.2924    5.8403   -1.2314 C.2       1 <0>         0.5684
     20 O2         -1.9669    5.1137   -2.1463 O.2       1 <0>        -0.5226
     21 C13        -3.6862    6.4112   -1.1817 C.3       1 <0>        -0.1923
     22 C14        -4.8386    5.4396   -0.9197 C.3       1 <0>        -0.1480
     23 C15        -4.6437    6.0368   -2.3148 C.3       1 <0>        -0.1468
     24 H2         -0.6625    1.9134    1.1017 H         1 <0>         0.1669
     25 H3          3.0439   -0.5151   -1.0624 H         1 <0>         0.1592
     26 H4          1.9930    3.9817    0.0694 H         1 <0>         0.4168
     27 H5          0.5631    5.5781    1.9165 H         1 <0>         0.0849
     28 H6          1.6486    6.5637    0.8823 H         1 <0>         0.0976
     29 H7         -0.2584    7.7912    2.3925 H         1 <0>         0.0936
     30 H8          0.0466    8.3573    0.7159 H         1 <0>         0.0844
     31 H9         -2.1212    6.4300    1.7158 H         1 <0>         0.0746
     32 H10        -2.3066    7.8387    0.6266 H         1 <0>         0.0851
     33 H11        -3.7686    7.4146   -0.7640 H         1 <0>         0.1233
     34 H12        -4.5887    4.3874   -0.7833 H         1 <0>         0.1013
     35 H13        -5.6795    5.8036   -0.3293 H         1 <0>         0.1054
     36 H14        -5.3564    6.7938   -2.6422 H         1 <0>         0.1049
     37 H15        -4.2656    5.3776   -3.0961 H         1 <0>         0.1078
@<TRIPOS>BOND
     1    1    6 ar
     2    1    2 ar
     3    1   24 1
     4    2    3 ar
     5    2   10 1
     6    3    4 ar
     7    3    9 1
     8    4    5 ar
     9    4   25 1
    10    5    6 ar
    11    5    8 1
    12    6    7 1
    13   10   11 am
    14   10   26 1
    15   11   12 2
    16   11   13 1
    17   13   14 1
    18   13   18 1
    19   13   15 1
    20   15   16 1
    21   15   27 1
    22   15   28 1
    23   16   17 1
    24   16   29 1
    25   16   30 1
    26   17   18 1
    27   17   31 1
    28   17   32 1
    29   18   19 am
    30   19   20 2
    31   19   21 1
    32   21   23 1
    33   21   22 1
    34   21   33 1
    35   22   23 1
    36   22   34 1
    37   22   35 1
    38   23   36 1
    39   23   37 1
@<TRIPOS>MOLECULE
ZINC62961589
   31    32     0     0     0
SMALL
USER_CHARGES

@<TRIPOS>ATOM
      1 C1         -0.0173    1.4248    0.0099 C.3       1 <0>         0.0262
      2 O1          0.0021   -0.0041    0.0020 O.3       1 <0>        -0.3186
      3 C2         -1.2016   -0.6382    0.0101 C.ar      1 <0>         0.0529
      4 C3         -1.8104   -0.9648    1.2199 C.ar      1 <0>         0.2181
      5 C4         -3.0378   -1.6108    1.2227 C.ar      1 <0>        -0.1716
      6 C5         -3.6543   -1.9292    0.0257 C.ar      1 <0>         0.0149
      7 C6         -3.0493   -1.6045   -1.1750 C.ar      1 <0>        -0.1263
      8 C7         -1.8272   -0.9552   -1.1846 C.ar      1 <0>        -0.0537
      9 Br1        -1.0079   -0.5066   -2.8288 Br        1 <0>        -0.0182
     10 Cl1        -5.1903   -2.7382    0.0308 Cl        1 <0>        -0.0488
     11 N1         -1.1847   -0.6423    2.4296 N.pl3     1 <0>        -0.7195
     12 C8         -1.8264   -0.9866    3.7008 C.3       1 <0>         0.1451
     13 H1         -2.3704   -1.9253    3.5961 H         1 <0>         0.1081
     14 C9         -2.7969    0.1329    4.1126 C.3       1 <0>        -0.1475
     15 C10        -3.2318   -0.0611    5.5853 C.3       1 <0>        -0.5756
     16 S1         -1.7912   -0.9373    6.3198 S.o2      1 <0>         2.3776
     17 O2         -1.1350   -0.0656    7.2302 O.2       1 <0>        -0.9293
     18 O3         -2.2071   -2.2230    6.7593 O.2       1 <0>        -0.9266
     19 C11        -0.7480   -1.1256    4.8130 C.3       1 <0>        -0.5938
     20 H2          1.0053    1.8021    0.0021 H         1 <0>         0.1007
     21 H3         -0.5445    1.7859   -0.8732 H         1 <0>         0.0529
     22 H4         -0.5275    1.7763    0.9067 H         1 <0>         0.0459
     23 H5         -3.5119   -1.8656    2.1590 H         1 <0>         0.1450
     24 H6         -3.5336   -1.8550   -2.1073 H         1 <0>         0.1472
     25 H7         -0.3262   -0.1908    2.4263 H         1 <0>         0.4136
     26 H8         -2.3021    1.0982    4.0055 H         1 <0>         0.0933
     27 H9         -3.6760    0.1046    3.4689 H         1 <0>         0.1011
     28 H10        -3.3879    0.9015    6.0721 H         1 <0>         0.1463
     29 H11        -4.1298   -0.6760    5.6453 H         1 <0>         0.1439
     30 H12        -0.2740   -2.1066    4.7821 H         1 <0>         0.1504
     31 H13        -0.0065   -0.3295    4.7448 H         1 <0>         0.1463
@<TRIPOS>BOND
     1    1    2 1
     2    1   20 1
     3    1   21 1
     4    1   22 1
     5    2    3 1
     6    3    8 ar
     7    3    4 ar
     8    4    5 ar
     9    4   11 1
    10    5    6 ar
    11    5   23 1
    12    6    7 ar
    13    6   10 1
    14    7    8 ar
    15    7   24 1
    16    8    9 1
    17   11   12 1
    18   11   25 1
    19   12   13 1
    20   12   19 1
    21   12   14 1
    22   14   15 1
    23   14   26 1
    24   14   27 1
    25   15   16 1
    26   15   28 1
    27   15   29 1
    28   16   17 2
    29   16   18 2
    30   16   19 1
    31   19   30 1
    32   19   31 1
@<TRIPOS>MOLECULE
ZINC03876666
   29    29     0     0     0
SMALL
USER_CHARGES
1-(3-amino-5,5-dimethyl-2-thioxo-thiazolidin-4-yl)-1-hydroxy-3-methyl-urea
@<TRIPOS>ATOM
      1 C1          0.4154    6.4415    0.3487 C.3       1 <0>        -0.1221
      2 C2          0.2774    5.1391   -0.4423 C.3       1 <0>        -0.0567
      3 C3         -0.8605    4.2637    0.1215 C.3       1 <0>         0.4005
      4 H1         -1.5896    4.0855   -0.6689 H         1 <0>         0.1639
      5 N1         -0.4048    2.9864    0.6188 N.pl3     1 <0>        -0.3803
      6 C4          0.8936    2.6554    0.5765 C.2       1 <0>         0.2983
      7 S1          1.6065    1.1971    1.1206 S.2       1 <0>        -0.4459
      8 S2          1.7223    4.0440   -0.1703 S.3       1 <0>        -0.0427
      9 N2         -1.3082    2.1057    1.1424 N.3       1 <0>        -0.5945
     10 N3         -1.5176    4.9902    1.2108 N.am      1 <0>        -0.4990
     11 C5         -2.7182    5.5678    1.0077 C.2       1 <0>         0.7026
     12 O1         -3.2139    5.5656   -0.1026 O.2       1 <0>        -0.5526
     13 N4         -3.3695    6.1479    2.0352 N.am      1 <0>        -0.7428
     14 C6         -4.7211    6.6782    1.8400 C.3       1 <0>         0.1029
     15 O2         -0.8912    5.0856    2.4772 O.3       1 <0>        -0.3220
     16 C7          0.0709    5.4206   -1.9320 C.3       1 <0>        -0.1340
     17 H2          1.1991    7.0551   -0.0956 H         1 <0>         0.0775
     18 H3         -0.5295    6.9842    0.3228 H         1 <0>         0.0736
     19 H4          0.6749    6.2130    1.3824 H         1 <0>         0.0816
     20 H5         -0.8517    1.2607    1.4520 H         1 <0>         0.3894
     21 H6         -1.8327    2.5292    1.8931 H         1 <0>         0.3548
     22 H7         -2.9432    6.2143    2.9040 H         1 <0>         0.3956
     23 H8         -5.0823    7.1057    2.7753 H         1 <0>         0.0839
     24 H9         -4.7008    7.4508    1.0713 H         1 <0>         0.0669
     25 H10        -5.3859    5.8727    1.5280 H         1 <0>         0.0655
     26 H11        -1.4336    5.5148    3.1529 H         1 <0>         0.3858
     27 H12        -0.0740    4.4797   -2.4628 H         1 <0>         0.0757
     28 H13        -0.8081    6.0514   -2.0641 H         1 <0>         0.0879
     29 H14         0.9477    5.9312   -2.3302 H         1 <0>         0.0861
@<TRIPOS>BOND
     1    1    2 1
     2    1   17 1
     3    1   18 1
     4    1   19 1
     5    2    8 1
     6    2    3 1
     7    2   16 1
     8    3    4 1
     9    3    5 1
    10    3   10 1
    11    5    6 1
    12    5    9 1
    13    6    7 2
    14    6    8 1
    15    9   20 1
    16    9   21 1
    17   10   11 am
    18   10   15 1
    19   11   12 2
    20   11   13 am
    21   13   14 1
    22   13   22 1
    23   14   23 1
    24   14   24 1
    25   14   25 1
    26   15   26 1
    27   16   27 1
    28   16   28 1
    29   16   29 1
@<TRIPOS>MOLECULE
ZINC37668012
   30    30     0     0     0
SMALL
USER_CHARGES

@<TRIPOS>ATOM
      1 C1         -0.0225    1.8097    0.0120 C.3       1 <0>        -0.6734
      2 S1          0.0021   -0.0041    0.0020 S.o2      1 <0>         2.6187
      3 O1          0.8352   -0.4880    1.0465 O.2       1 <0>        -0.9544
      4 O2         -1.3147   -0.5105   -0.1678 O.2       1 <0>        -0.9544
      5 N1          0.7947   -0.4113   -1.3938 N.pl3     1 <0>        -1.1178
      6 C2          2.2072   -0.0612   -1.5629 C.3       1 <0>         0.1033
      7 C3          2.7924   -0.8537   -2.7335 C.3       1 <0>         0.1167
      8 N2          4.2049   -0.5036   -2.9026 N.pl3     1 <0>        -0.7413
      9 C4          4.9566   -1.1034   -3.9154 C.ar      1 <0>         0.2856
     10 C5          6.2965   -0.7764   -4.0724 C.ar      1 <0>        -0.2826
     11 C6          7.0411   -1.3743   -5.0792 C.ar      1 <0>         0.2856
     12 C7          6.4443   -2.2987   -5.9278 C.ar      1 <0>        -0.2866
     13 C8          5.1087   -2.6232   -5.7695 C.ar      1 <0>         0.1903
     14 C9          4.3655   -2.0320   -4.7627 C.ar      1 <0>        -0.2873
     15 F1          4.5304   -3.5222   -6.5957 F         1 <0>        -0.1380
     16 N3          8.3893   -1.0468   -5.2398 N.pl3     1 <0>        -0.8705
     17 H1          1.0001    2.1870    0.0043 H         1 <0>         0.1266
     18 H2         -0.5497    2.1708   -0.8711 H         1 <0>         0.1300
     19 H3         -0.5327    2.1613    0.9088 H         1 <0>         0.1315
     20 H4          0.3237   -0.8815   -2.0994 H         1 <0>         0.4215
     21 H5          2.2952    1.0060   -1.7665 H         1 <0>         0.0721
     22 H6          2.7532   -0.3034   -0.6511 H         1 <0>         0.0893
     23 H7          2.7044   -1.9209   -2.5299 H         1 <0>         0.0738
     24 H8          2.2464   -0.6115   -3.6453 H         1 <0>         0.0716
     25 H9          4.6180    0.1447   -2.3111 H         1 <0>         0.4040
     26 H10         6.7586   -0.0575   -3.4121 H         1 <0>         0.1244
     27 H11         7.0234   -2.7639   -6.7118 H         1 <0>         0.1291
     28 H12         3.3241   -2.2898   -4.6382 H         1 <0>         0.1298
     29 H13         8.8054   -0.4012   -4.6474 H         1 <0>         0.4012
     30 H14         8.9094   -1.4649   -5.9437 H         1 <0>         0.4015
@<TRIPOS>BOND
     1    1    2 1
     2    1   17 1
     3    1   18 1
     4    1   19 1
     5    2    3 2
     6    2    4 2
     7    2    5 1
     8    5    6 1
     9    5   20 1
    10    6    7 1
    11    6   21 1
    12    6   22 1
    13    7    8 1
    14    7   23 1
    15    7   24 1
    16    8    9 1
    17    8   25 1
    18    9   14 ar
    19    9   10 ar
    20   10   11 ar
    21   10   26 1
    22   11   12 ar
    23   11   16 1
    24   12   13 ar
    25   12   27 1
    26   13   14 ar
    27   13   15 1
    28   14   28 1
    29   16   29 1
    30   16   30 1
@<TRIPOS>MOLECULE
ZINC40482139
   39    39     0     0     0
SMALL
USER_CHARGES

@<TRIPOS>ATOM
      1 C1         -0.0187    1.5258    0.0104 C.3       1 <0>        -0.1686
      2 C2          0.0021   -0.0041    0.0020 C.3       1 <0>         0.0809
      3 C3          0.7421   -0.5109    1.2415 C.3       1 <0>        -0.1636
      4 C4          0.0380   -1.5594    2.1051 C.3       1 <0>        -0.1852
      5 C5          0.1779   -0.1218    2.6095 C.3       1 <0>        -0.1651
      6 C6          0.7074   -0.4901   -1.2379 C.2       1 <0>         0.4972
      7 O1          1.8885   -0.7628   -1.1961 O.2       1 <0>        -0.4818
      8 N1          0.0259   -0.6217   -2.3931 N.am      1 <0>        -0.6845
      9 C7          0.7116   -1.0941   -3.5984 C.3       1 <0>         0.0802
     10 H1          1.4672   -1.8294   -3.3219 H         1 <0>         0.0899
     11 C8          1.3729    0.0705   -4.2892 C.2       1 <0>         0.4951
     12 O2          2.3914   -0.1030   -4.9366 O.co2     1 <0>        -0.6741
     13 O3          0.8896    1.1863   -4.2007 O.co2     1 <0>        -0.6883
     14 C9         -0.3045   -1.7379   -4.5440 C.3       1 <0>        -0.0643
     15 C10        -1.3652   -0.7059   -4.9321 C.3       1 <0>        -0.1381
     16 C11         0.4117   -2.2314   -5.8028 C.3       1 <0>        -0.1385
     17 C12        -0.9759   -2.9204   -3.8426 C.3       1 <0>        -0.1364
     18 N2         -1.3761   -0.5125    0.0124 N.4       1 <0>        -0.6352
     19 H2          1.0039    1.9031    0.0027 H         1 <0>         0.1167
     20 H3         -0.5459    1.8868   -0.8726 H         1 <0>         0.0940
     21 H4         -0.5289    1.8773    0.9072 H         1 <0>         0.0911
     22 H5          1.8255   -0.5824    1.1458 H         1 <0>         0.1587
     23 H6         -0.9524   -1.8882    1.7902 H         1 <0>         0.0880
     24 H7          0.6582   -2.3211    2.5776 H         1 <0>         0.1221
     25 H8          0.8902    0.0624    3.4137 H         1 <0>         0.1198
     26 H9         -0.7204    0.4953    2.6263 H         1 <0>         0.1017
     27 H10        -0.9187   -0.4036   -2.4265 H         1 <0>         0.3810
     28 H11        -0.8868    0.1365   -5.4318 H         1 <0>         0.0784
     29 H12        -2.0891   -1.1645   -5.6057 H         1 <0>         0.0529
     30 H13        -1.8754   -0.3544   -4.0353 H         1 <0>         0.0361
     31 H14         1.1673   -2.9666   -5.5263 H         1 <0>         0.0555
     32 H15        -0.3122   -2.6900   -6.4764 H         1 <0>         0.0526
     33 H16         0.8900   -1.3890   -6.3024 H         1 <0>         0.0757
     34 H17        -1.4861   -2.5688   -2.9458 H         1 <0>         0.0358
     35 H18        -1.6998   -3.3790   -4.5162 H         1 <0>         0.0594
     36 H19        -0.2203   -3.6556   -3.5661 H         1 <0>         0.0563
     37 H20        -1.8641   -0.1783   -0.8050 H         1 <0>         0.4334
     38 H21        -1.3624   -1.5214    0.0069 H         1 <0>         0.4367
     39 H22        -1.8484   -0.1871    0.8426 H         1 <0>         0.4344
@<TRIPOS>BOND
     1    1    2 1
     2    1   19 1
     3    1   20 1
     4    1   21 1
     5    2    3 1
     6    2    6 1
     7    2   18 1
     8    3    5 1
     9    3    4 1
    10    3   22 1
    11    4    5 1
    12    4   23 1
    13    4   24 1
    14    5   25 1
    15    5   26 1
    16    6    7 2
    17    6    8 am
    18    8    9 1
    19    8   27 1
    20    9   10 1
    21    9   11 1
    22    9   14 1
    23   11   12 2
    24   11   13 1
    25   14   15 1
    26   14   16 1
    27   14   17 1
    28   15   28 1
    29   15   29 1
    30   15   30 1
    31   16   31 1
    32   16   32 1
    33   16   33 1
    34   17   34 1
    35   17   35 1
    36   17   36 1
    37   18   37 1
    38   18   38 1
    39   18   39 1
@<TRIPOS>MOLECULE
ZINC44250122
   35    36     0     0     0
SMALL
NO_CHARGES

@<TRIPOS>ATOM
      1 C1          0.2162    1.4400    0.0895 C.3       1 <0>        -0.0906
      2 C2          0.1373   -0.0644    0.0495 C.2       1 <0>         0.0101
      3 C3         -1.0708   -0.6432    0.0684 C.2       1 <0>        -0.3975
      4 C4         -1.2627   -2.1335    0.0058 C.3       1 <0>         0.0754
      5 H1         -1.5297   -2.4228   -1.0107 H         1 <0>         0.0991
      6 C5          0.0390   -2.8358    0.4118 C.3       1 <0>        -0.0413
      7 C6          1.1829   -2.0980   -0.2567 C.2       1 <0>         0.1720
      8 O1          1.2832   -0.7674   -0.0092 O.3       1 <0>        -0.2711
      9 N1          2.0205   -2.7051   -1.0276 N.2       1 <0>        -0.7484
     10 C7          0.2051   -2.7840    1.9318 C.3       1 <0>        -0.0270
     11 N2          1.3895   -3.5606    2.3218 N.4       1 <0>        -0.6115
     12 C8         -2.3662   -2.5377    0.9491 C.2       1 <0>        -0.0037
     13 C9         -3.4193   -3.3157    0.6405 C.2       1 <0>        -0.2148
     14 C10        -4.1978   -3.4357    1.8146 C.2       1 <0>        -0.2117
     15 C11        -3.5739   -2.7240    2.7704 C.2       1 <0>        -0.0535
     16 O2         -2.4621   -2.1870    2.2420 O.3       1 <0>        -0.1663
     17 C12        -2.2097    0.1792    0.1509 C.2       1 <0>         0.4130
     18 O3         -2.4162    0.8318    1.1544 O.2       1 <0>        -0.4911
     19 C13        -3.1733    0.2502   -1.0056 C.3       1 <0>        -0.1996
     20 H2          1.2609    1.7498    0.0630 H         1 <0>         0.0596
     21 H3         -0.3077    1.8543   -0.7719 H         1 <0>         0.0649
     22 H4         -0.2476    1.8039    1.0063 H         1 <0>         0.0706
     23 H5          2.7437   -2.2101   -1.4432 H         1 <0>         0.3269
     24 H6          0.3290   -1.7485    2.2487 H         1 <0>         0.1216
     25 H7         -0.6795   -3.2065    2.4086 H         1 <0>         0.1244
     26 H8          1.2748   -4.5191    2.0284 H         1 <0>         0.3892
     27 H9          2.2083   -3.1695    1.8805 H         1 <0>         0.3880
     28 H10        -3.6300   -3.7623   -0.3200 H         1 <0>         0.1452
     29 H11        -5.1172   -3.9919    1.9231 H         1 <0>         0.1450
     30 H12        -3.9083   -2.6074    3.7907 H         1 <0>         0.1978
     31 H13        -2.8731   -0.4634   -1.7729 H         1 <0>         0.0708
     32 H14        -4.1774    0.0082   -0.6573 H         1 <0>         0.0739
     33 H15        -3.1663    1.2570   -1.4230 H         1 <0>         0.0799
     34 H16         0.0206   -3.8726    0.0757 H         1 <0>         0.1044
     35 H17         1.4990   -3.5264    3.3242 H         1 <0>         0.3960
@<TRIPOS>BOND
     1    1    2 1
     2    1   20 1
     3    1   21 1
     4    1   22 1
     5    2    8 1
     6    2    3 2
     7    3    4 1
     8    3   17 1
     9    4    5 1
    10    4    6 1
    11    4   12 1
    12    6    7 1
    13    6   10 1
    14    6   34 1
    15    7    8 1
    16    7    9 2
    17    9   23 1
    18   10   11 1
    19   10   24 1
    20   10   25 1
    21   11   26 1
    22   11   27 1
    23   11   35 1
    24   12   16 1
    25   12   13 2
    26   13   14 1
    27   13   28 1
    28   14   15 2
    29   14   29 1
    30   15   16 1
    31   15   30 1
    32   17   18 2
    33   17   19 1
    34   19   31 1
    35   19   32 1
    36   19   33 1
@<TRIPOS>MOLECULE
ZINC50397270
   39    40     0     0     0
SMALL
USER_CHARGES

@<TRIPOS>ATOM
      1 C1          0.1874    0.7885    0.2354 C.3       1 <0>        -0.1246
      2 C2          0.4726   -0.6631    0.5229 C.ar      1 <0>        -0.0106
      3 C3          0.4833   -1.5821   -0.5107 C.ar      1 <0>        -0.0979
      4 C4          0.7443   -2.9128   -0.2507 C.ar      1 <0>        -0.1307
      5 C5          0.9963   -3.3283    1.0508 C.ar      1 <0>         0.1879
      6 C6          0.9848   -2.4028    2.0864 C.ar      1 <0>        -0.0602
      7 C7          0.7285   -1.0722    1.8186 C.ar      1 <0>        -0.6264
      8 S1          0.7208    0.1039    3.1306 S.o2      1 <0>         2.6915
      9 O1          1.3181   -0.5338    4.2512 O.2       1 <0>        -0.9532
     10 O2          1.2207    1.3191    2.5896 O.2       1 <0>        -0.9521
     11 N1         -0.8622    0.3800    3.5312 N.pl3     1 <0>        -1.0973
     12 C8         -1.6901   -0.7152    4.0425 C.3       1 <0>         0.1438
     13 H1         -1.0705   -1.6001    4.1879 H         1 <0>         0.1200
     14 C9         -2.3094   -0.3027    5.3801 C.3       1 <0>        -0.1339
     15 C10        -3.3771   -1.3361    5.7590 C.3       1 <0>        -0.1379
     16 C11        -4.5353   -1.2301    4.7661 C.3       1 <0>         0.1048
     17 N2         -4.0386   -1.2735    3.3965 N.am      1 <0>        -0.7174
     18 C12        -2.7760   -1.0239    3.0521 C.2       1 <0>         0.5006
     19 O3         -2.4885   -1.0486    1.8742 O.2       1 <0>        -0.5258
     20 C13         1.2571   -2.8490    3.4999 C.3       1 <0>        -0.1352
     21 N3          1.2602   -4.6737    1.3174 N.pl3     1 <0>        -0.8791
     22 H2          1.1219    1.3068    0.0210 H         1 <0>         0.0863
     23 H3         -0.4762    0.8646   -0.6260 H         1 <0>         0.0723
     24 H4         -0.2899    1.2438    1.1031 H         1 <0>         0.0641
     25 H5          0.2870   -1.2585   -1.5222 H         1 <0>         0.1287
     26 H6          0.7522   -3.6300   -1.0582 H         1 <0>         0.1258
     27 H7         -1.2411    1.2668    3.4274 H         1 <0>         0.4215
     28 H8         -1.5372   -0.2742    6.1488 H         1 <0>         0.0911
     29 H9         -2.7687    0.6811    5.2840 H         1 <0>         0.0818
     30 H10        -2.9487   -2.3374    5.7156 H         1 <0>         0.0773
     31 H11        -3.7399   -1.1344    6.7669 H         1 <0>         0.0946
     32 H12        -5.2240   -2.0597    4.9261 H         1 <0>         0.0808
     33 H13        -5.0639   -0.2907    4.9281 H         1 <0>         0.0698
     34 H14        -4.6668   -1.4974    2.6920 H         1 <0>         0.4021
     35 H15         2.3119   -2.7003    3.7310 H         1 <0>         0.0869
     36 H16         0.6481   -2.2641    4.1892 H         1 <0>         0.0927
     37 H17         1.0082   -3.9053    3.6018 H         1 <0>         0.0607
     38 H18         1.2677   -5.3192    0.5934 H         1 <0>         0.3985
     39 H19         1.4360   -4.9626    2.2265 H         1 <0>         0.3987
@<TRIPOS>BOND
     1    1    2 1
     2    1   22 1
     3    1   23 1
     4    1   24 1
     5    2    7 ar
     6    2    3 ar
     7    3    4 ar
     8    3   25 1
     9    4    5 ar
    10    4   26 1
    11    5    6 ar
    12    5   21 1
    13    6    7 ar
    14    6   20 1
    15    7    8 1
    16    8    9 2
    17    8   10 2
    18    8   11 1
    19   11   12 1
    20   11   27 1
    21   12   13 1
    22   12   18 1
    23   12   14 1
    24   14   15 1
    25   14   28 1
    26   14   29 1
    27   15   16 1
    28   15   30 1
    29   15   31 1
    30   16   17 1
    31   16   32 1
    32   16   33 1
    33   17   18 am
    34   17   34 1
    35   18   19 2
    36   20   35 1
    37   20   36 1
    38   20   37 1
    39   21   38 1
    40   21   39 1
@<TRIPOS>MOLECULE
ZINC04008803
   24    25     0     0     0
SMALL
USER_CHARGES
2-(3,7-dioxo-2,4,6,8-tetrazabicyclo[3.3.0]oct-8-yl)propanoic acid
@<TRIPOS>ATOM
      1 C1          0.5460    3.6251    1.2656 C.3       1 <0>        -0.1429
      2 C2          1.2350    3.0943    0.0069 C.3       1 <0>         0.1316
      3 H1          0.7272    3.4820   -0.8762 H         1 <0>         0.0878
      4 C3          1.1765    1.5884   -0.0006 C.2       1 <0>         0.4598
      5 O1          2.1986    0.9442   -0.0139 O.co2     1 <0>        -0.6148
      6 N1          2.6340    3.5287   -0.0041 N.am      1 <0>        -0.6067
      7 C4          3.2580    4.3589   -1.0441 C.3       1 <0>         0.3248
      8 H2          3.1699    3.9242   -2.0398 H         1 <0>         0.1352
      9 C5          4.7230    4.5110   -0.5617 C.3       1 <0>         0.3313
     10 H3          5.4508    4.1646   -1.2954 H         1 <0>         0.1373
     11 N2          4.8464    5.9466   -0.2725 N.am      1 <0>        -0.7405
     12 C6          3.6805    6.5526   -0.5294 C.2       1 <0>         0.7083
     13 O2          3.5059    7.7460   -0.3758 O.2       1 <0>        -0.5878
     14 N3          2.7242    5.7262   -0.9714 N.am      1 <0>        -0.7350
     15 N4          4.7563    3.7490    0.6945 N.am      1 <0>        -0.7471
     16 C7          3.5429    3.2365    0.9345 C.2       1 <0>         0.7118
     17 O3          3.2900    2.5632    1.9149 O.2       1 <0>        -0.5516
     18 H4          1.0538    3.2374    2.1487 H         1 <0>         0.0653
     19 H5          0.5883    4.7143    1.2711 H         1 <0>         0.0408
     20 H6         -0.4949    3.3019    1.2738 H         1 <0>         0.0741
     21 H7          5.6471    6.3863    0.0538 H         1 <0>         0.4283
     22 H8          1.8205    5.9889   -1.2065 H         1 <0>         0.4305
     23 H9          5.5345    3.6383    1.2630 H         1 <0>         0.4255
     24 O4         -0.0110    0.9628    0.0073 O.co2     1 <0>        -0.7657
@<TRIPOS>BOND
     1    1    2 1
     2    1   18 1
     3    1   19 1
     4    1   20 1
     5    2    3 1
     6    2    4 1
     7    2    6 1
     8    4    5 2
     9    4   24 1
    10    6   16 am
    11    6    7 1
    12    7    8 1
    13    7   14 1
    14    7    9 1
    15    9   10 1
    16    9   11 1
    17    9   15 1
    18   11   12 am
    19   11   21 1
    20   12   13 2
    21   12   14 am
    22   14   22 1
    23   15   16 am
    24   15   23 1
    25   16   17 2
@<TRIPOS>MOLECULE
ZINC01676016
   22    22     0     0     0
SMALL
USER_CHARGES
3,5-diamino-4-methyl-benzenesulfonic acid
@<TRIPOS>ATOM
      1 C1          2.4553    3.9475   -0.0001 C.3       1 <0>        -0.0908
      2 C2          1.1621    3.1738    0.0075 C.ar      1 <0>        -0.2212
      3 C3          1.1818    1.7862    0.0004 C.ar      1 <0>         0.2270
      4 C4         -0.0126    1.0758    0.0080 C.ar      1 <0>        -0.1555
      5 C5         -1.2187    1.7495    0.0173 C.ar      1 <0>        -0.5721
      6 C6         -1.2419    3.1308    0.0298 C.ar      1 <0>        -0.1554
      7 C7         -0.0511    3.8473    0.0223 C.ar      1 <0>         0.2270
      8 N1         -0.0755    5.2438    0.0291 N.pl3     1 <0>        -0.8815
      9 S1         -2.7308    0.8449    0.0196 S.o2      1 <0>         2.6995
     10 O1         -3.7212    1.7081   -0.5219 O.2       1 <0>        -1.0582
     11 O2         -2.4426   -0.4293   -0.5396 O.2       1 <0>        -1.0582
     12 N2          2.4007    1.1044   -0.0149 N.pl3     1 <0>        -0.8815
     13 H1          2.7579    4.1392   -1.0296 H         1 <0>         0.0565
     14 H2          2.3149    4.8951    0.5198 H         1 <0>         0.0560
     15 H3          3.2286    3.3677    0.5038 H         1 <0>         0.0560
     16 H4          0.0021   -0.0041    0.0020 H         1 <0>         0.1280
     17 H5         -2.1864    3.6544    0.0409 H         1 <0>         0.1280
     18 H6          0.7560    5.7434    0.0235 H         1 <0>         0.3908
     19 H7         -0.9238    5.7140    0.0394 H         1 <0>         0.3967
     20 H8          2.4139    0.1345   -0.0203 H         1 <0>         0.3967
     21 H9          3.2341    1.6008   -0.0202 H         1 <0>         0.3908
     22 O3         -3.1101    0.6060    1.4740 O.3       1 <0>        -1.0790
@<TRIPOS>BOND
     1    1    2 1
     2    1   13 1
     3    1   14 1
     4    1   15 1
     5    2    7 ar
     6    2    3 ar
     7    3    4 ar
     8    3   12 1
     9    4    5 ar
    10    4   16 1
    11    5    6 ar
    12    5    9 1
    13    6    7 ar
    14    6   17 1
    15    7    8 1
    16    8   18 1
    17    8   19 1
    18    9   10 2
    19    9   11 2
    20    9   22 1
    21   12   20 1
    22   12   21 1
@<TRIPOS>MOLECULE
ZINC04008784
   21    22     0     0     0
SMALL
USER_CHARGES

@<TRIPOS>ATOM
      1 C1         -0.0184    1.5028    0.0103 C.3       1 <0>         0.0788
      2 C2          0.0021   -0.0041    0.0020 C.2       1 <0>         0.4814
      3 O1          1.0661   -0.5992   -0.0113 O.co2     1 <0>        -0.6841
      4 O2         -1.0454   -0.6280    0.0087 O.co2     1 <0>        -0.6965
      5 N1          1.3560    2.0099   -0.0001 N.am      1 <0>        -0.5963
      6 C3          2.1669    2.2921    1.1927 C.3       1 <0>         0.3298
      7 H1          2.2819    1.4224    1.8397 H         1 <0>         0.1379
      8 C4          3.5122    2.7957    0.6108 C.3       1 <0>         0.3309
      9 H2          4.3661    2.2025    0.9381 H         1 <0>         0.1388
     10 N2          3.5845    4.1928    1.0611 N.am      1 <0>        -0.7374
     11 C5          2.4926    4.4843    1.7791 C.2       1 <0>         0.7079
     12 O3          2.2971    5.5777    2.2735 O.2       1 <0>        -0.5851
     13 N3          1.6176    3.4577    1.8995 N.am      1 <0>        -0.7391
     14 N4          3.3048    2.7396   -0.8430 N.am      1 <0>        -0.7442
     15 C6          2.0722    2.2833   -1.0978 C.2       1 <0>         0.7084
     16 O4          1.6406    2.1340   -2.2247 O.2       1 <0>        -0.5776
     17 H3         -0.5455    1.8639   -0.8728 H         1 <0>         0.0841
     18 H4         -0.5286    1.8543    0.9071 H         1 <0>         0.0754
     19 H5          4.3097    4.8074    0.8685 H         1 <0>         0.4290
     20 H6          0.7764    3.4759    2.3821 H         1 <0>         0.4320
     21 H7          3.9597    2.9908   -1.5131 H         1 <0>         0.4260
@<TRIPOS>BOND
     1    1    2 1
     2    1    5 1
     3    1   17 1
     4    1   18 1
     5    2    3 2
     6    2    4 1
     7    5   15 am
     8    5    6 1
     9    6    7 1
    10    6   13 1
    11    6    8 1
    12    8    9 1
    13    8   10 1
    14    8   14 1
    15   10   11 am
    16   10   19 1
    17   11   12 2
    18   11   13 am
    19   13   20 1
    20   14   15 am
    21   14   21 1
    22   15   16 2
@<TRIPOS>MOLECULE
ZINC40217910
   22    22     0     0     0
SMALL
USER_CHARGES

@<TRIPOS>ATOM
      1 C1         -0.0184    1.5028    0.0103 C.3       1 <0>        -0.1127
      2 C2          0.0021   -0.0041    0.0020 C.ar      1 <0>        -0.0181
      3 C3          0.0062   -0.7122   -1.1884 C.ar      1 <0>        -0.0791
      4 N1          0.0237   -2.0307   -1.1738 N.ar      1 <0>        -0.1889
      5 N2          0.0379   -2.7098   -0.0856 N.ar      1 <0>        -0.3490
      6 C4          0.0360   -2.1339    1.1056 C.ar      1 <0>         0.3854
      7 C5          0.0233   -0.7325    1.1967 C.ar      1 <0>        -0.1861
      8 C6          0.0266   -0.0502    2.5099 C.2       1 <0>         0.4739
      9 N3         -1.0983    0.2345    3.0977 N.2       1 <0>        -0.4268
     10 O1         -1.0952    0.8873    4.3543 O.3       1 <0>        -0.4436
     11 N4          1.2273    0.2854    3.1129 N.pl3     1 <0>        -0.8677
     12 O2          0.0513   -2.8911    2.2300 O.3       1 <0>        -0.6814
     13 C7         -0.0098    0.0254   -2.5024 C.3       1 <0>        -0.0718
     14 H1          1.0042    1.8801    0.0026 H         1 <0>         0.0690
     15 H2         -0.5455    1.8639   -0.8728 H         1 <0>         0.0723
     16 H3         -0.5286    1.8543    0.9071 H         1 <0>         0.0643
     17 H4         -1.9776    1.0567    4.7117 H         1 <0>         0.3889
     18 H5          2.0661    0.0731    2.6746 H         1 <0>         0.3929
     19 H6          1.2294    0.7326    3.9737 H         1 <0>         0.3980
     20 H7          1.0139    0.2172   -2.8240 H         1 <0>         0.0569
     21 H8         -0.5189   -0.5797   -3.2526 H         1 <0>         0.0636
     22 H9         -0.5360    0.9723   -2.3812 H         1 <0>         0.0602
@<TRIPOS>BOND
     1    1    2 1
     2    1   14 1
     3    1   15 1
     4    1   16 1
     5    2    7 ar
     6    2    3 ar
     7    3    4 ar
     8    3   13 1
     9    4    5 ar
    10    5    6 ar
    11    6    7 ar
    12    6   12 1
    13    7    8 1
    14    8    9 2
    15    8   11 1
    16    9   10 1
    17   10   17 1
    18   11   18 1
    19   11   19 1
    20   13   20 1
    21   13   21 1
    22   13   22 1
@<TRIPOS>MOLECULE
ZINC50398212
   35    36     0     0     0
SMALL
USER_CHARGES

@<TRIPOS>ATOM
      1 C1         -0.0187    1.5250    0.0104 C.3       1 <0>        -0.1327
      2 C2          1.4272    2.0357   -0.0006 C.3       1 <0>        -0.1278
      3 C3          2.0554    1.6807   -1.3506 C.3       1 <0>         0.1615
      4 H1          1.6173    2.3052   -2.1292 H         1 <0>         0.1153
      5 C4          1.8007    0.2352   -1.6683 C.2       1 <0>         0.4858
      6 O1          2.4849   -0.2949   -2.5180 O.2       1 <0>        -0.4942
      7 N1          0.8629   -0.4968   -1.0660 N.am      1 <0>        -0.7320
      8 C5          0.0021   -0.0041    0.0020 C.3       1 <0>         0.1124
      9 N2          3.5000    1.9173   -1.2924 N.am      1 <0>        -0.7386
     10 C6          4.1877    2.1692   -2.4238 C.2       1 <0>         0.7363
     11 O2          3.6092    2.2001   -3.4928 O.2       1 <0>        -0.5544
     12 N3          5.5167    2.3868   -2.3702 N.am      1 <0>        -0.6020
     13 C7          6.3412    2.3723   -1.1481 C.3       1 <0>         0.0738
     14 C8          7.5725    3.2479   -1.4901 C.3       1 <0>         0.0874
     15 H2          8.4295    2.9743   -0.8747 H         1 <0>         0.0743
     16 C9          7.8148    2.8774   -2.9772 C.3       1 <0>        -0.0967
     17 C10         6.3854    2.6716   -3.5216 C.3       1 <0>         0.0887
     18 H3          6.0485    3.5778   -4.0251 H         1 <0>         0.0661
     19 C11         6.3619    1.5098   -4.4812 C.2       1 <0>         0.4880
     20 O3          5.6625    0.5392   -4.2463 O.co2     1 <0>        -0.6607
     21 O4          7.0422    1.5405   -5.4925 O.co2     1 <0>        -0.7084
     22 O5          7.2679    4.6370   -1.3507 O.3       1 <0>        -0.5528
     23 H4         -0.5247    1.8789    0.9086 H         1 <0>         0.0874
     24 H5         -0.5417    1.8885   -0.8741 H         1 <0>         0.0766
     25 H6          1.4354    3.1172    0.1349 H         1 <0>         0.0826
     26 H7          1.9904    1.5604    0.8025 H         1 <0>         0.0737
     27 H8          0.7460   -1.4147   -1.3570 H         1 <0>         0.3954
     28 H9          0.3754   -0.3646    0.9605 H         1 <0>         0.0607
     29 H10        -1.0107   -0.3773   -0.1501 H         1 <0>         0.0731
     30 H11         3.9615    1.8926   -0.4396 H         1 <0>         0.3886
     31 H12         5.7892    2.8037   -0.3130 H         1 <0>         0.0636
     32 H13         6.6528    1.3547   -0.9128 H         1 <0>         0.0679
     33 H14         8.3159    3.6915   -3.5008 H         1 <0>         0.0848
     34 H15         8.3901    1.9549   -3.0560 H         1 <0>         0.0863
     35 H16         7.0143    4.8960   -0.4542 H         1 <0>         0.3702
@<TRIPOS>BOND
     1    1    8 1
     2    1    2 1
     3    1   23 1
     4    1   24 1
     5    2    3 1
     6    2   25 1
     7    2   26 1
     8    3    4 1
     9    3    5 1
    10    3    9 1
    11    5    6 2
    12    5    7 am
    13    7    8 1
    14    7   27 1
    15    8   28 1
    16    8   29 1
    17    9   10 am
    18    9   30 1
    19   10   11 2
    20   10   12 am
    21   12   17 1
    22   12   13 1
    23   13   14 1
    24   13   31 1
    25   13   32 1
    26   14   15 1
    27   14   16 1
    28   14   22 1
    29   16   17 1
    30   16   33 1
    31   16   34 1
    32   17   18 1
    33   17   19 1
    34   19   20 2
    35   19   21 1
    36   22   35 1
@<TRIPOS>MOLECULE
ZINC49474072
   29    30     0     0     0
SMALL
USER_CHARGES

@<TRIPOS>ATOM
      1 C1         -0.0178    1.4648    0.0101 C.3       1 <0>        -0.0468
      2 N1          0.0021   -0.0041    0.0020 N.4       1 <0>        -0.3843
      3 C2          0.6807   -0.4759   -1.2110 C.3       1 <0>        -0.0007
      4 C3          0.6318   -2.0046   -1.2651 C.3       1 <0>        -0.1247
      5 C4          1.3299   -2.5758   -0.0291 C.3       1 <0>         0.2190
      6 C5          0.6647   -2.0179    1.2308 C.3       1 <0>        -0.1695
      7 C6          0.7123   -0.4887    1.1917 C.3       1 <0>         0.0060
      8 N2          2.7495   -2.1965   -0.0459 N.3       1 <0>        -0.4402
      9 N3          3.4165   -2.7752    0.9964 N.pl3     1 <0>        -0.5197
     10 C7          3.0035   -3.9510    1.5032 C.2       1 <0>         0.5292
     11 S1          3.8664   -4.6573    2.8022 S.2       1 <0>        -0.5567
     12 N4          1.9234   -4.5809    1.0065 N.pl3     1 <0>        -0.5210
     13 N5          1.2235   -4.0413   -0.0353 N.3       1 <0>        -0.4656
     14 H1          1.0047    1.8421    0.0024 H         1 <0>         0.1249
     15 H2         -0.5450    1.8259   -0.8730 H         1 <0>         0.1271
     16 H3         -0.5280    1.8163    0.9069 H         1 <0>         0.1256
     17 H4          0.1817   -0.0655   -2.0889 H         1 <0>         0.1420
     18 H5          1.7195   -0.1462   -1.1972 H         1 <0>         0.1411
     19 H6         -0.4067   -2.3352   -1.2819 H         1 <0>         0.1093
     20 H7          1.1401   -2.3534   -2.1640 H         1 <0>         0.1314
     21 H8         -0.3730   -2.3488    1.2715 H         1 <0>         0.1030
     22 H9          1.1965   -2.3761    2.1123 H         1 <0>         0.1143
     23 H10         1.7504   -0.1587    1.1541 H         1 <0>         0.1417
     24 H11         0.2366   -0.0877    2.0867 H         1 <0>         0.1356
     25 H12         3.1777   -2.4370   -0.9274 H         1 <0>         0.3700
     26 H13         4.1942   -2.3352    1.3739 H         1 <0>         0.4595
     27 H14         1.6396   -5.4250    1.3910 H         1 <0>         0.4505
     28 H15         0.2581   -4.3338   -0.0124 H         1 <0>         0.3759
     29 H16        -0.9449   -0.3522    0.0119 H         1 <0>         0.4231
@<TRIPOS>BOND
     1    1    2 1
     2    1   14 1
     3    1   15 1
     4    1   16 1
     5    2    7 1
     6    2    3 1
     7    2   29 1
     8    3    4 1
     9    3   17 1
    10    3   18 1
    11    4    5 1
    12    4   19 1
    13    4   20 1
    14    5   13 1
    15    5    6 1
    16    5    8 1
    17    6    7 1
    18    6   21 1
    19    6   22 1
    20    7   23 1
    21    7   24 1
    22    8    9 1
    23    8   25 1
    24    9   10 1
    25    9   26 1
    26   10   11 2
    27   10   12 1
    28   12   13 1
    29   12   27 1
    30   13   28 1
@<TRIPOS>MOLECULE
ZINC08766886
   48    50     0     0     0
SMALL
USER_CHARGES
2,6-bis(2-chlorophenyl)-4,4-dimethyl-3,5-dinitro-piperidine
@<TRIPOS>ATOM
      1 C1         -4.3769    4.1841    1.8169 C.3       1 <0>        -0.1806
      2 C2         -3.5372    2.9338    2.0866 C.3       1 <0>        -0.0749
      3 C3         -4.2550    1.7041    1.5236 C.3       1 <0>         0.0164
      4 H1         -4.4311    1.8415    0.4568 H         1 <0>         0.1600
      5 C4         -3.3828    0.4658    1.7422 C.3       1 <0>         0.0620
      6 H2         -3.2191    0.3206    2.8100 H         1 <0>         0.1762
      7 C5         -1.3619    1.7980    1.6264 C.3       1 <0>         0.0811
      8 H3         -0.3961    1.8906    1.1296 H         1 <0>         0.1911
      9 C6         -2.1738    3.0761    1.4044 C.3       1 <0>         0.0072
     10 H4         -2.3166    3.2355    0.3356 H         1 <0>         0.1771
     11 N1         -1.4564    4.2172    1.9784 N.pl3     1 <0>        -0.0003
     12 O1         -2.0478    5.0179    2.6802 O.2       1 <0>        -0.1243
     13 O2         -0.2684    4.3652    1.7537 O.3       1 <0>        -0.1094
     14 C7         -1.1487    1.5887    3.1035 C.ar      1 <0>        -0.1528
     15 C8         -1.0578    2.6778    3.9500 C.ar      1 <0>        -0.0822
     16 C9         -0.8685    2.4859    5.3056 C.ar      1 <0>        -0.0916
     17 C10        -0.7699    1.2047    5.8159 C.ar      1 <0>        -0.0598
     18 C11        -0.8601    0.1152    4.9706 C.ar      1 <0>        -0.0839
     19 C12        -1.0497    0.3066    3.6133 C.ar      1 <0>        -0.0513
     20 Cl1        -1.1643   -1.0616    2.5510 Cl        1 <0>        -0.0062
     21 C13        -4.0768   -0.7441    1.1716 C.ar      1 <0>        -0.1663
     22 C14        -3.9760   -1.0266   -0.1778 C.ar      1 <0>        -0.1058
     23 C15        -4.6122   -2.1365   -0.7013 C.ar      1 <0>        -0.0936
     24 C16        -5.3498   -2.9647    0.1244 C.ar      1 <0>        -0.0634
     25 C17        -5.4517   -2.6830    1.4735 C.ar      1 <0>        -0.0894
     26 C18        -4.8103   -1.5753    1.9990 C.ar      1 <0>        -0.0104
     27 Cl2        -4.9310   -1.2254    3.6951 Cl        1 <0>        -0.0194
     28 N2         -5.5361    1.5277    2.2121 N.pl3     1 <0>        -0.0145
     29 O3         -5.5642    1.4003    3.4231 O.2       1 <0>        -0.1080
     30 O4         -6.5731    1.5084    1.5734 O.3       1 <0>        -0.1158
     31 C19        -3.3407    2.7654    3.5946 C.3       1 <0>        -0.2042
     32 H5         -5.3492    4.0795    2.2983 H         1 <0>         0.0853
     33 H6         -3.8651    5.0589    2.2181 H         1 <0>         0.1237
     34 H7         -4.5144    4.3045    0.7424 H         1 <0>         0.0749
     35 H8         -1.1352    3.6789    3.5520 H         1 <0>         0.1533
     36 H9         -0.7979    3.3371    5.9666 H         1 <0>         0.1589
     37 H10        -0.6226    1.0553    6.8753 H         1 <0>         0.1598
     38 H11        -0.7834   -0.8856    5.3693 H         1 <0>         0.1581
     39 H12        -3.3997   -0.3803   -0.8232 H         1 <0>         0.1297
     40 H13        -4.5329   -2.3570   -1.7555 H         1 <0>         0.1507
     41 H14        -5.8461   -3.8322   -0.2850 H         1 <0>         0.1541
     42 H15        -6.0275   -3.3303    2.1184 H         1 <0>         0.1559
     43 H16        -2.9927    1.7541    3.8049 H         1 <0>         0.0771
     44 H17        -2.6016    3.4847    3.9473 H         1 <0>         0.1168
     45 H18        -4.2879    2.9374    4.1059 H         1 <0>         0.1103
     46 N3         -2.0863    0.6439    1.0609 N.4       1 <0>        -0.5140
     47 H19        -2.2494    0.8044    0.0599 H         1 <0>         0.4251
     48 H20        -1.5203   -0.2039    1.1837 H         1 <0>         0.4176
@<TRIPOS>BOND
     1    1    2 1
     2    1   32 1
     3    1   33 1
     4    1   34 1
     5    2    9 1
     6    2    3 1
     7    2   31 1
     8    3    4 1
     9    3    5 1
    10    3   28 1
    11    5    6 1
    12    5   21 1
    13    5   46 1
    14    7    8 1
    15    7    9 1
    16    7   14 1
    17    7   46 1
    18    9   10 1
    19    9   11 1
    20   11   12 2
    21   11   13 1
    22   14   19 ar
    23   14   15 ar
    24   15   16 ar
    25   15   35 1
    26   16   17 ar
    27   16   36 1
    28   17   18 ar
    29   17   37 1
    30   18   19 ar
    31   18   38 1
    32   19   20 1
    33   21   26 ar
    34   21   22 ar
    35   22   23 ar
    36   22   39 1
    37   23   24 ar
    38   23   40 1
    39   24   25 ar
    40   24   41 1
    41   25   26 ar
    42   25   42 1
    43   26   27 1
    44   28   29 2
    45   28   30 1
    46   31   43 1
    47   31   44 1
    48   31   45 1
    49   46   47 1
    50   46   48 1
@<TRIPOS>MOLECULE
ZINC15999301
   57    63     0     0     0
SMALL
USER_CHARGES
(3aS,4R,8aS,8bS)-6'-chloro-7'-methyl-2-(2-naphthyl)spiro[3a,6,7,8,8a,8b-hexahydropyrrolo[3,4-f]pyrrolizine-4,3'-indoline]-1,2',3-trione
@<TRIPOS>ATOM
      1 C1          5.1757    5.0486   -2.7147 C.3       1 <0>        -0.1326
      2 C2          4.1028    3.9981   -2.8430 C.ar      1 <0>        -0.0742
      3 C3          4.0703    3.1780   -3.9536 C.ar      1 <0>         0.0216
      4 C4          3.0886    2.2109   -4.0802 C.ar      1 <0>        -0.1073
      5 C5          2.1342    2.0653   -3.0884 C.ar      1 <0>        -0.0404
      6 C6          2.1641    2.8818   -1.9810 C.ar      1 <0>        -0.1982
      7 C7          3.1457    3.8559   -1.8410 C.ar      1 <0>         0.1798
      8 N1          2.9694    4.5494   -0.6428 N.am      1 <0>        -0.6310
      9 C8          1.9115    4.0963    0.0529 C.2       1 <0>         0.5400
     10 O1          1.5268    4.5085    1.1268 O.2       1 <0>        -0.4405
     11 C9          1.2926    2.9812   -0.7502 C.3       1 <0>         0.1415
     12 C10        -0.1315    3.1600   -1.0510 C.3       1 <0>        -0.1823
     13 H1         -0.5356    3.4401   -0.0782 H         1 <0>         0.1456
     14 C11        -0.6404    1.6804   -1.2545 C.3       1 <0>        -0.1411
     15 H2         -0.2747    1.2097   -2.1671 H         1 <0>         0.1714
     16 C12        -0.0127    1.0858    0.0080 C.3       1 <0>         0.0554
     17 H3          0.0021   -0.0041    0.0020 H         1 <0>         0.1895
     18 C13         1.7181    1.9059    1.4110 C.3       1 <0>        -0.0210
     19 C14         0.4046    2.2210    2.1504 C.3       1 <0>        -0.1453
     20 C15        -0.7077    1.6671    1.2529 C.3       1 <0>        -0.1469
     21 C16        -2.1009    2.0033   -1.3019 C.2       1 <0>         0.5514
     22 O2         -3.0131    1.3176   -0.8929 O.2       1 <0>        -0.4115
     23 N2         -2.1974    3.2281   -1.9004 N.am      1 <0>        -0.5267
     24 C17        -0.9974    3.8812   -1.9539 C.2       1 <0>         0.5809
     25 O3         -0.7230    4.8579   -2.6174 O.2       1 <0>        -0.4126
     26 C18        -3.3923    3.7474   -2.4169 C.ar      1 <0>         0.1130
     27 C19        -3.3956    5.0156   -3.0086 C.ar      1 <0>        -0.1424
     28 C20        -4.5381    5.5436   -3.5228 C.ar      1 <0>        -0.0701
     29 C21        -5.7377    4.8137   -3.4516 C.ar      1 <0>        -0.0557
     30 C22        -6.9373    5.3326   -3.9675 C.ar      1 <0>        -0.1030
     31 C23        -8.0807    4.5991   -3.8819 C.ar      1 <0>        -0.1072
     32 C24        -8.0817    3.3381   -3.2883 C.ar      1 <0>        -0.1033
     33 C25        -6.9392    2.8034   -2.7775 C.ar      1 <0>        -0.1068
     34 C26        -5.7385    3.5311   -2.8480 C.ar      1 <0>        -0.0358
     35 C27        -4.5406    3.0113   -2.3311 C.ar      1 <0>        -0.1176
     36 Cl1         5.2666    3.3619   -5.1981 Cl        1 <0>        -0.0160
     37 H4          6.0393    4.6251   -2.2020 H         1 <0>         0.0911
     38 H5          5.4726    5.3877   -3.7072 H         1 <0>         0.0919
     39 H6          4.7911    5.8927   -2.1423 H         1 <0>         0.0749
     40 H7          3.0674    1.5714   -4.9502 H         1 <0>         0.1603
     41 H8          1.3668    1.3113   -3.1833 H         1 <0>         0.1450
     42 H9          3.5427    5.2736   -0.3466 H         1 <0>         0.4401
     43 H10         2.1701    1.0029    1.8214 H         1 <0>         0.1484
     44 H11         2.4092    2.7438    1.5027 H         1 <0>         0.1400
     45 H12         0.3843    1.7158    3.1160 H         1 <0>         0.1198
     46 H13         0.2962    3.2971    2.2855 H         1 <0>         0.1184
     47 H14        -1.3730    2.4811    0.9652 H         1 <0>         0.0911
     48 H15        -1.2691    0.8872    1.7673 H         1 <0>         0.1302
     49 H16        -2.4770    5.5810   -3.0611 H         1 <0>         0.1491
     50 H17        -4.5251    6.5218   -3.9803 H         1 <0>         0.1409
     51 H18        -6.9520    6.3084   -4.4299 H         1 <0>         0.1332
     52 H19        -9.0011    5.0005   -4.2796 H         1 <0>         0.1302
     53 H20        -9.0029    2.7771   -3.2326 H         1 <0>         0.1302
     54 H21        -6.9550    1.8252   -2.3201 H         1 <0>         0.1313
     55 H22        -4.5269    2.0356   -1.8683 H         1 <0>         0.1540
     56 N3          1.3293    1.6799    0.0066 N.4       1 <0>        -0.3847
     57 H23         1.9977    1.0419   -0.4410 H         1 <0>         0.4434
@<TRIPOS>BOND
     1    1    2 1
     2    1   37 1
     3    1   38 1
     4    1   39 1
     5    2    7 ar
     6    2    3 ar
     7    3    4 ar
     8    3   36 1
     9    4    5 ar
    10    4   40 1
    11    5    6 ar
    12    5   41 1
    13    6   11 1
    14    6    7 ar
    15    7    8 1
    16    8    9 am
    17    8   42 1
    18    9   10 2
    19    9   11 1
    20   11   12 1
    21   11   56 1
    22   12   13 1
    23   12   24 1
    24   12   14 1
    25   14   15 1
    26   14   16 1
    27   14   21 1
    28   16   17 1
    29   16   20 1
    30   16   56 1
    31   18   19 1
    32   18   43 1
    33   18   44 1
    34   18   56 1
    35   19   20 1
    36   19   45 1
    37   19   46 1
    38   20   47 1
    39   20   48 1
    40   21   22 2
    41   21   23 am
    42   23   24 am
    43   23   26 1
    44   24   25 2
    45   26   35 ar
    46   26   27 ar
    47   27   28 ar
    48   27   49 1
    49   28   29 ar
    50   28   50 1
    51   29   34 ar
    52   29   30 ar
    53   30   31 ar
    54   30   51 1
    55   31   32 ar
    56   31   52 1
    57   32   33 ar
    58   32   53 1
    59   33   34 ar
    60   33   54 1
    61   34   35 ar
    62   35   55 1
    63   56   57 1
@<TRIPOS>MOLECULE
ZINC35671613
   49    53     0     0     0
SMALL
USER_CHARGES

@<TRIPOS>ATOM
      1 C1         -0.1212    2.2094   -0.5437 C.2       1 <0>        -0.1723
      2 C2          1.1839    2.6440   -0.4073 C.2       1 <0>        -0.0733
      3 C3          2.1804    1.7266   -0.3574 C.2       1 <0>        -0.2610
      4 S1          1.2784    0.1931   -0.5052 S.3       1 <0>         0.0828
      5 C4         -0.3658    0.8786   -0.6235 C.2       1 <0>        -0.1100
      6 C5          3.6647    1.9446   -0.2146 C.3       1 <0>         0.1159
      7 H1          3.9111    2.9668   -0.5016 H         1 <0>         0.1563
      8 C6          4.0772    1.7097    1.2399 C.3       1 <0>         0.0835
      9 N1          3.4239    2.7005    2.0988 N.am      1 <0>        -0.5337
     10 C7          3.9702    3.9351    2.2604 C.2       1 <0>         0.3643
     11 N2          3.4414    4.8520    3.0053 N.2       1 <0>        -0.4880
     12 C8          2.2719    4.6406    3.6966 C.2       1 <0>         0.1491
     13 C9          1.5959    5.5496    4.5367 C.2       1 <0>         0.1304
     14 C10         0.4346    5.1055    5.1264 C.2       1 <0>        -0.2304
     15 S2          0.2289    3.4503    4.5520 S.3       1 <0>         0.3255
     16 C11         1.6881    3.3684    3.5427 C.2       1 <0>        -0.3125
     17 C12         2.2670    2.3971    2.7349 C.2       1 <0>         0.5884
     18 O1          1.7495    1.2995    2.6051 O.2       1 <0>        -0.4972
     19 S3         -0.5623    6.0568    6.2101 S.3       1 <0>         0.0629
     20 C13         0.6580    7.2387    6.8736 C.3       1 <0>        -0.1359
     21 C14         1.5946    7.6478    5.7732 C.2       1 <0>         0.5195
     22 O2          1.9747    8.8000    5.7807 O.2       1 <0>        -0.5040
     23 N3          2.0496    6.8742    4.7910 N.am      1 <0>        -0.6381
     24 N4          4.3836    1.0048   -1.0853 N.4       1 <0>        -0.3798
     25 C15         5.8249    1.2706   -1.0052 C.3       1 <0>        -0.0160
     26 C16         6.5845    0.2430   -1.8469 C.3       1 <0>        -0.1446
     27 C17         6.1252    0.3453   -3.3043 C.3       1 <0>        -0.1393
     28 C18         4.6089    0.1400   -3.3669 C.3       1 <0>        -0.1439
     29 C19         3.9226    1.1714   -2.4688 C.3       1 <0>        -0.0096
     30 H2         -0.9341    2.9193   -0.5816 H         1 <0>         0.1484
     31 H3          1.4062    3.6989   -0.3418 H         1 <0>         0.1349
     32 H4         -1.3103    0.3659   -0.7306 H         1 <0>         0.1994
     33 H5          3.7752    0.7081    1.5460 H         1 <0>         0.1282
     34 H6          5.1590    1.8068    1.3310 H         1 <0>         0.1244
     35 H7          4.8904    4.1616    1.7423 H         1 <0>         0.2089
     36 H8          0.1417    8.1182    7.2585 H         1 <0>         0.1633
     37 H9          1.2236    6.7663    7.6768 H         1 <0>         0.1373
     38 H10         2.7363    7.2371    4.2099 H         1 <0>         0.4239
     39 H11         6.0307    2.2723   -1.3826 H         1 <0>         0.1357
     40 H12         6.1497    1.2007    0.0330 H         1 <0>         0.1324
     41 H13         7.6543    0.4432   -1.7876 H         1 <0>         0.1163
     42 H14         6.3796   -0.7591   -1.4702 H         1 <0>         0.0896
     43 H15         6.3762    1.3305   -3.6973 H         1 <0>         0.0833
     44 H16         6.6218   -0.4225   -3.8976 H         1 <0>         0.0961
     45 H17         4.2666    0.2665   -4.3940 H         1 <0>         0.1145
     46 H18         4.3630   -0.8642   -3.0217 H         1 <0>         0.0889
     47 H19         2.8428    1.0282   -2.5112 H         1 <0>         0.1319
     48 H20         4.1689    2.1752   -2.8150 H         1 <0>         0.1315
     49 H21         4.2006    0.0599   -0.7823 H         1 <0>         0.4222
@<TRIPOS>BOND
     1    1    5 2
     2    1    2 1
     3    1   30 1
     4    2    3 2
     5    2   31 1
     6    3    4 1
     7    3    6 1
     8    4    5 1
     9    5   32 1
    10    6    7 1
    11    6    8 1
    12    6   24 1
    13    8    9 1
    14    8   33 1
    15    8   34 1
    16    9   17 am
    17    9   10 1
    18   10   11 2
    19   10   35 1
    20   11   12 1
    21   12   16 2
    22   12   13 1
    23   13   23 1
    24   13   14 2
    25   14   15 1
    26   14   19 1
    27   15   16 1
    28   16   17 1
    29   17   18 2
    30   19   20 1
    31   20   21 1
    32   20   36 1
    33   20   37 1
    34   21   22 2
    35   21   23 am
    36   23   38 1
    37   24   29 1
    38   24   25 1
    39   24   49 1
    40   25   26 1
    41   25   39 1
    42   25   40 1
    43   26   27 1
    44   26   41 1
    45   26   42 1
    46   27   28 1
    47   27   43 1
    48   27   44 1
    49   28   29 1
    50   28   45 1
    51   28   46 1
    52   29   47 1
    53   29   48 1
@<TRIPOS>MOLECULE
ZINC35843321
   56    61     0     0     0
SMALL
USER_CHARGES

@<TRIPOS>ATOM
      1 C1          0.0318    1.5602    0.0805 C.3       1 <0>        -0.1194
      2 C2          0.0589    0.0538    0.0510 C.ar      1 <0>        -0.0985
      3 C3         -0.0176   -0.6173   -1.1559 C.ar      1 <0>        -0.0736
      4 C4          0.0086   -1.9959   -1.1889 C.ar      1 <0>        -0.0911
      5 C5          0.1113   -2.7235   -0.0055 C.ar      1 <0>         0.1585
      6 C6          0.1851   -2.0376    1.2031 C.ar      1 <0>        -0.1247
      7 C7          0.1661   -0.6610    1.2308 C.ar      1 <0>        -0.0675
      8 C8          0.2795   -3.0922    2.2697 C.3       1 <0>         0.1132
      9 C9         -0.8883   -2.9929    3.2581 C.3       1 <0>        -0.1375
     10 H1         -1.2946   -3.9686    3.5248 H         1 <0>         0.1463
     11 C10        -0.3066   -2.2295    4.4793 C.3       1 <0>        -0.1429
     12 H2         -0.4105   -2.7852    5.4112 H         1 <0>         0.1476
     13 C11         1.1646   -1.9534    4.1188 C.3       1 <0>         0.0657
     14 H3          1.3119   -0.9345    3.7607 H         1 <0>         0.1104
     15 N1          1.5095   -2.9488    3.0666 N.3       1 <0>        -0.4395
     16 C12         1.7672   -4.1979    3.8223 C.3       1 <0>         0.0145
     17 C13         2.4757   -3.7501    5.1164 C.3       1 <0>        -0.1249
     18 C14         2.0550   -2.2705    5.3339 C.3       1 <0>        -0.1175
     19 C15        -1.0875   -0.9346    4.4863 C.2       1 <0>         0.5374
     20 O1         -0.9459   -0.0352    5.2866 O.2       1 <0>        -0.4536
     21 N2         -1.9588   -0.9365    3.4709 N.am      1 <0>        -0.5279
     22 C16        -1.9407   -2.0551    2.7107 C.2       1 <0>         0.5467
     23 O2         -2.6445   -2.2766    1.7488 O.2       1 <0>        -0.4406
     24 C17        -2.8280    0.1336    3.2163 C.ar      1 <0>         0.1175
     25 C18        -2.4863    1.0994    2.2790 C.ar      1 <0>        -0.1010
     26 C19        -3.3443    2.1525    2.0294 C.ar      1 <0>        -0.1027
     27 C20        -4.5433    2.2461    2.7118 C.ar      1 <0>        -0.0891
     28 C21        -4.8872    1.2855    3.6465 C.ar      1 <0>        -0.0312
     29 C22        -4.0343    0.2264    3.8964 C.ar      1 <0>        -0.0544
     30 C23        -4.4116   -0.8232    4.9098 C.3       1 <0>        -0.1226
     31 Cl1        -6.3932    1.4069    4.5015 Cl        1 <0>        -0.0534
     32 C24         0.2562   -4.4010    1.5268 C.2       1 <0>         0.5509
     33 O3          0.3148   -5.5106    2.0131 O.2       1 <0>        -0.4809
     34 N3          0.1576   -4.1013    0.2176 N.am      1 <0>        -0.6490
     35 C25        -0.0747   -2.7174   -2.5094 C.3       1 <0>        -0.1160
     36 H4          1.0354    1.9453   -0.1004 H         1 <0>         0.0781
     37 H5         -0.6429    1.9267   -0.6932 H         1 <0>         0.0744
     38 H6         -0.3166    1.8983    1.0564 H         1 <0>         0.0669
     39 H7         -0.0986   -0.0591   -2.0770 H         1 <0>         0.1360
     40 H8          0.2304   -0.1391    2.1741 H         1 <0>         0.1174
     41 H9          0.8276   -4.6971    4.0591 H         1 <0>         0.0685
     42 H10         2.4138   -4.8609    3.2474 H         1 <0>         0.0929
     43 H11         2.1398   -4.3534    5.9598 H         1 <0>         0.0769
     44 H12         3.5569   -3.8273    5.0019 H         1 <0>         0.0790
     45 H13         2.9385   -1.6322    5.3308 H         1 <0>         0.0832
     46 H14         1.4938   -2.1343    6.2583 H         1 <0>         0.0862
     47 H15        -1.5499    1.0274    1.7458 H         1 <0>         0.1426
     48 H16        -3.0783    2.9039    1.3007 H         1 <0>         0.1435
     49 H17        -5.2125    3.0707    2.5151 H         1 <0>         0.1426
     50 H18        -4.0440   -0.5281    5.8926 H         1 <0>         0.0837
     51 H19        -5.4965   -0.9232    4.9426 H         1 <0>         0.0836
     52 H20        -3.9671   -1.7775    4.6272 H         1 <0>         0.0626
     53 H21         0.1228   -4.7654   -0.4886 H         1 <0>         0.4190
     54 H22         0.9299   -2.8701   -2.9039 H         1 <0>         0.0752
     55 H23        -0.5593   -3.6831   -2.3658 H         1 <0>         0.0627
     56 H24        -0.6548   -2.1209   -3.2134 H         1 <0>         0.0756
@<TRIPOS>BOND
     1    1    2 1
     2    1   36 1
     3    1   37 1
     4    1   38 1
     5    2    7 ar
     6    2    3 ar
     7    3    4 ar
     8    3   39 1
     9    4    5 ar
    10    4   35 1
    11    5   34 1
    12    5    6 ar
    13    6    7 ar
    14    6    8 1
    15    7   40 1
    16    8   15 1
    17    8    9 1
    18    8   32 1
    19    9   10 1
    20    9   22 1
    21    9   11 1
    22   11   12 1
    23   11   13 1
    24   11   19 1
    25   13   14 1
    26   13   18 1
    27   13   15 1
    28   15   16 1
    29   16   17 1
    30   16   41 1
    31   16   42 1
    32   17   18 1
    33   17   43 1
    34   17   44 1
    35   18   45 1
    36   18   46 1
    37   19   20 2
    38   19   21 am
    39   21   22 am
    40   21   24 1
    41   22   23 2
    42   24   29 ar
    43   24   25 ar
    44   25   26 ar
    45   25   47 1
    46   26   27 ar
    47   26   48 1
    48   27   28 ar
    49   27   49 1
    50   28   29 ar
    51   28   31 1
    52   29   30 1
    53   30   50 1
    54   30   51 1
    55   30   52 1
    56   32   33 2
    57   32   34 am
    58   34   53 1
    59   35   54 1
    60   35   55 1
    61   35   56 1
@<TRIPOS>MOLECULE
ZINC63625821
   54    59     0     0     0
SMALL
USER_CHARGES

@<TRIPOS>ATOM
      1 C1         -0.0187    1.5258    0.0104 C.3       1 <0>        -0.1724
      2 C2          0.0021   -0.0041    0.0020 C.3       1 <0>         0.2389
      3 H1          0.5126   -0.3536   -0.8954 H         1 <0>         0.0967
      4 C3         -1.4107   -0.5222    0.0060 C.2       1 <0>        -0.3278
      5 C4         -1.8402   -1.5365    0.7942 C.2       1 <0>         0.2134
      6 N1         -3.1605   -1.7470    0.5455 N.pl3     1 <0>        -0.4677
      7 H2         -3.7207   -2.4148    0.9709 H         1 <0>         0.4541
      8 N2         -3.5711   -0.8298   -0.4338 N.am      1 <0>        -0.3156
      9 C5         -2.5004   -0.0768   -0.7670 C.2       1 <0>         0.5627
     10 O1         -2.4809    0.8233   -1.5870 O.2       1 <0>        -0.4753
     11 C6         -4.8447   -0.7169   -0.9632 C.2       1 <0>         0.3655
     12 N3         -5.2845    0.1128   -1.8808 N.2       1 <0>        -0.4919
     13 C7         -6.5663    0.1111   -2.3065 C.ar      1 <0>         0.0953
     14 C8         -7.1642    0.9448   -3.2797 C.ar      1 <0>        -0.0559
     15 C9         -8.4906    0.8109   -3.5969 C.ar      1 <0>        -0.1033
     16 C10        -9.2912   -0.1397   -2.9801 C.ar      1 <0>        -0.0867
     17 C11        -8.7395   -0.9720   -2.0235 C.ar      1 <0>        -0.0639
     18 C12        -7.4118   -0.8455   -1.6997 C.ar      1 <0>        -0.1373
     19 S1         -6.3074   -1.6689   -0.5777 S.3       1 <0>         0.0159
     20 C13        -0.9483   -2.2666    1.7644 C.3       1 <0>        -0.0784
     21 C14         0.3163   -1.4809    1.9654 C.2       1 <0>         0.5346
     22 O2          1.0208   -1.7745    2.9079 O.2       1 <0>        -0.5345
     23 N4          0.7130   -0.4842    1.1804 N.am      1 <0>        -0.5925
     24 C15         1.9701    0.1834    1.5275 C.3       1 <0>         0.1149
     25 C16         1.6825    1.3549    2.4685 C.3       1 <0>        -0.1215
     26 C17         2.9756    2.0416    2.8255 C.2       1 <0>         0.0784
     27 C18         3.5104    3.1303    2.2271 C.ar      1 <0>        -0.1740
     28 C19         3.0660    3.9681    1.1069 C.ar      1 <0>        -0.0116
     29 C20         3.8334    5.0145    0.7255 C.ar      1 <0>        -0.1521
     30 C21         5.0398    5.3178    1.3715 C.ar      1 <0>         0.0537
     31 C22         5.5138    4.5946    2.4080 C.ar      1 <0>        -0.2100
     32 C23         4.7878    3.4719    2.8928 C.ar      1 <0>         0.3268
     33 N5          5.0331    2.6273    3.8649 N.pl3     1 <0>        -0.5868
     34 C24         3.9347    1.6568    3.9298 C.3       1 <0>         0.0598
     35 H3          1.0039    1.9031    0.0027 H         1 <0>         0.0617
     36 H4         -0.5459    1.8868   -0.8726 H         1 <0>         0.0967
     37 H5         -0.5289    1.8773    0.9072 H         1 <0>         0.0654
     38 H6         -6.5691    1.6956   -3.7782 H         1 <0>         0.1389
     39 H7         -8.9227    1.4603   -4.3439 H         1 <0>         0.1414
     40 H8        -10.3347   -0.2284   -3.2441 H         1 <0>         0.1456
     41 H9         -9.3495   -1.7172   -1.5346 H         1 <0>         0.1389
     42 H10        -1.4630   -2.3778    2.7188 H         1 <0>         0.1387
     43 H11        -0.7052   -3.2512    1.3649 H         1 <0>         0.1451
     44 H12         2.6335   -0.5259    2.0224 H         1 <0>         0.1038
     45 H13         2.4469    0.5546    0.6203 H         1 <0>         0.0950
     46 H14         1.0191    2.0642    1.9735 H         1 <0>         0.1188
     47 H15         1.2057    0.9837    3.3757 H         1 <0>         0.1165
     48 H16         2.1401    3.7521    0.5945 H         1 <0>         0.1600
     49 H17         3.5083    5.6323   -0.0985 H         1 <0>         0.1576
     50 H18         5.6137    6.1647    1.0255 H         1 <0>         0.1601
     51 H19         6.4497    4.8698    2.8714 H         1 <0>         0.1595
     52 H20         3.4362    1.7145    4.8974 H         1 <0>         0.1744
     53 H21         4.3158    0.6495    3.7623 H         1 <0>         0.1751
     54 H22         5.8091    2.6437    4.4467 H         1 <0>         0.4552
@<TRIPOS>BOND
     1    1    2 1
     2    1   35 1
     3    1   36 1
     4    1   37 1
     5    2    3 1
     6    2   23 1
     7    2    4 1
     8    4    9 1
     9    4    5 2
    10    5    6 1
    11    5   20 1
    12    6    7 1
    13    6    8 1
    14    8    9 am
    15    8   11 1
    16    9   10 2
    17   11   19 1
    18   11   12 2
    19   12   13 1
    20   13   18 ar
    21   13   14 ar
    22   14   15 ar
    23   14   38 1
    24   15   16 ar
    25   15   39 1
    26   16   17 ar
    27   16   40 1
    28   17   18 ar
    29   17   41 1
    30   18   19 1
    31   20   21 1
    32   20   42 1
    33   20   43 1
    34   21   22 2
    35   21   23 am
    36   23   24 1
    37   24   25 1
    38   24   44 1
    39   24   45 1
    40   25   26 1
    41   25   46 1
    42   25   47 1
    43   26   34 1
    44   26   27 2
    45   27   32 ar
    46   27   28 ar
    47   28   29 ar
    48   28   48 1
    49   29   30 ar
    50   29   49 1
    51   30   31 ar
    52   30   50 1
    53   31   32 ar
    54   31   51 1
    55   32   33 2
    56   33   34 1
    57   33   54 1
    58   34   52 1
    59   34   53 1
@<TRIPOS>MOLECULE
ZINC27368674
   46    47     0     0     0
SMALL
USER_CHARGES
4-[2-[[(1S)-2-methyl-1-(2-thienyl)propyl]amino]ethoxy]benzenesulfonamide
@<TRIPOS>ATOM
      1 C1         -5.7286   -0.4240   -2.5729 C.3       1 <0>        -0.1513
      2 C2         -4.2943    0.0443   -2.3190 C.3       1 <0>        -0.1086
      3 C3         -4.3016    1.5255   -1.9359 C.3       1 <0>        -0.1693
      4 C4         -3.6848   -0.7743   -1.1791 C.3       1 <0>         0.1439
      5 H1         -4.2061   -0.5776   -0.2306 H         1 <0>         0.1518
      6 C5         -3.7711   -2.2415   -1.5123 C.2       1 <0>        -0.2484
      7 C6         -4.6635   -3.1644   -1.0776 C.2       1 <0>        -0.0798
      8 C7         -4.5510   -4.4678   -1.5239 C.2       1 <0>        -0.1705
      9 C8         -3.5452   -4.7868   -2.3747 C.2       1 <0>        -0.1114
     10 S1         -2.7197   -3.2166   -2.5757 S.3       1 <0>         0.0452
     11 N1         -2.2768   -0.3944   -1.0019 N.4       1 <0>        -0.5453
     12 C9         -1.8356   -0.6377    0.3779 C.3       1 <0>         0.0019
     13 C10        -0.3408   -0.3335    0.4965 C.3       1 <0>         0.0211
     14 O1         -0.1187    1.0596    0.2687 O.3       1 <0>        -0.3238
     15 C11         1.1654    1.4992    0.3382 C.ar      1 <0>         0.1719
     16 C12         2.1899    0.6089    0.6254 C.ar      1 <0>        -0.2244
     17 C13         3.4951    1.0571    0.6893 C.ar      1 <0>         0.0180
     18 C14         3.7793    2.3939    0.4794 C.ar      1 <0>        -0.6875
     19 C15         2.7593    3.2841    0.1987 C.ar      1 <0>         0.0286
     20 C16         1.4532    2.8399    0.1276 C.ar      1 <0>        -0.1622
     21 S2          5.4442    2.9637    0.5694 S.o2      1 <0>         2.6357
     22 O2          6.2729    1.8396    0.3070 O.2       1 <0>        -0.9824
     23 O3          5.5082    4.1544   -0.2034 O.2       1 <0>        -0.9463
     24 N2          5.7269    3.4036    2.1407 N.pl3     1 <0>        -1.1616
     25 H2         -5.7233   -1.4889   -2.8483 H         1 <0>         0.0693
     26 H3         -6.1668    0.1645   -3.3924 H         1 <0>         0.0792
     27 H4         -6.3269   -0.2842   -1.6605 H         1 <0>         0.0680
     28 H5         -3.6960   -0.0954   -3.2315 H         1 <0>         0.0975
     29 H6         -3.2704    1.8621   -1.7534 H         1 <0>         0.0534
     30 H7         -4.8999    1.6653   -1.0235 H         1 <0>         0.0766
     31 H8         -4.7398    2.1140   -2.7554 H         1 <0>         0.0907
     32 H9         -5.4525   -2.8850   -0.3950 H         1 <0>         0.1444
     33 H10        -5.2514   -5.2218   -1.1961 H         1 <0>         0.1518
     34 H11        -3.3052   -5.7428   -2.8161 H         1 <0>         0.2007
     35 H12        -1.6486   -0.9874   -1.6829 H         1 <0>         0.4411
     36 H13        -2.3979    0.0139    1.0629 H         1 <0>         0.1456
     37 H14        -2.0176   -1.6902    0.6409 H         1 <0>         0.1512
     38 H15         0.0088   -0.6005    1.5047 H         1 <0>         0.1167
     39 H16         0.2132   -0.9202   -0.2510 H         1 <0>         0.0924
     40 H17         1.9678   -0.4344    0.7941 H         1 <0>         0.1397
     41 H18         4.2936    0.3635    0.9077 H         1 <0>         0.1499
     42 H19         2.9840    4.3277    0.0345 H         1 <0>         0.1563
     43 H20         0.6569    3.5356   -0.0921 H         1 <0>         0.1459
     44 H21         6.7605    3.7668    2.2395 H         1 <0>         0.4193
     45 H22         5.5797    2.5334    2.7972 H         1 <0>         0.4088
     46 H23        -2.1543    0.6751   -1.2280 H         1 <0>         0.4561
@<TRIPOS>BOND
     1    1    2 1
     2    1   25 1
     3    1   26 1
     4    1   27 1
     5    2    3 1
     6    2    4 1
     7    2   28 1
     8    3   29 1
     9    3   30 1
    10    3   31 1
    11    4    5 1
    12    4    6 1
    13    4   11 1
    14    6   10 1
    15    6    7 2
    16    7    8 1
    17    7   32 1
    18    8    9 2
    19    8   33 1
    20    9   10 1
    21    9   34 1
    22   11   12 1
    23   11   35 1
    24   11   46 1
    25   12   13 1
    26   12   36 1
    27   12   37 1
    28   13   14 1
    29   13   38 1
    30   13   39 1
    31   14   15 1
    32   15   20 ar
    33   15   16 ar
    34   16   17 ar
    35   16   40 1
    36   17   18 ar
    37   17   41 1
    38   18   19 ar
    39   18   21 1
    40   19   20 ar
    41   19   42 1
    42   20   43 1
    43   21   22 2
    44   21   23 2
    45   21   24 1
    46   24   44 1
    47   24   45 1
@<TRIPOS>MOLECULE
ZINC37446515
   37    38     0     0     0
SMALL
USER_CHARGES

@<TRIPOS>ATOM
      1 C1          0.8423    0.7590   -1.0292 C.3       1 <0>        -0.1807
      2 C2          0.2047   -0.4278   -0.3041 C.3       1 <0>         0.0090
      3 C3          0.9612   -0.6959    0.9985 C.3       1 <0>        -0.2049
      4 N1         -1.1991   -0.1194   -0.0004 N.4       1 <0>        -0.5017
      5 C4         -1.8603   -1.3190    0.5303 C.3       1 <0>         0.1487
      6 C5         -1.6481   -2.4873   -0.4346 C.3       1 <0>        -0.1699
      7 C6         -3.3361   -1.0539    0.6813 C.2       1 <0>        -0.0637
      8 C7         -4.2305   -1.9371    1.1452 C.2       1 <0>        -0.0958
      9 C8         -5.5302   -1.2554    1.1190 C.ar      1 <0>        -0.1388
     10 C9         -6.8299   -1.6218    1.4662 C.ar      1 <0>        -0.0240
     11 C10        -7.8562   -0.7150    1.3142 C.ar      1 <0>        -0.1038
     12 C11        -7.5990    0.5559    0.8178 C.ar      1 <0>        -0.0431
     13 C12        -6.3187    0.9296    0.4712 C.ar      1 <0>        -0.1010
     14 C13        -5.2697    0.0305    0.6172 C.ar      1 <0>         0.0880
     15 O1         -3.9451    0.1050    0.3756 O.3       1 <0>        -0.1988
     16 Br1        -9.6219   -1.2036    1.7827 Br        1 <0>        -0.0151
     17 C14        -1.2718   -1.6641    1.8740 C.2       1 <0>         0.5246
     18 O2         -1.0066   -2.8168    2.1419 O.2       1 <0>        -0.4687
     19 N2         -1.0401   -0.6917    2.7780 N.am      1 <0>        -0.8437
     20 H1          1.8840    0.5302   -1.2545 H         1 <0>         0.1130
     21 H2          0.3034    0.9500   -1.9572 H         1 <0>         0.0855
     22 H3          0.7939    1.6424   -0.3925 H         1 <0>         0.0838
     23 H4          0.2531   -1.3112   -0.9407 H         1 <0>         0.1527
     24 H5          0.6615    0.0348    1.7498 H         1 <0>         0.0874
     25 H6          0.7279   -1.6994    1.3543 H         1 <0>         0.0913
     26 H7          2.0333   -0.6139    0.8195 H         1 <0>         0.1135
     27 H8         -1.2403    0.6189    0.6861 H         1 <0>         0.4248
     28 H9         -0.5807   -2.6790   -0.5439 H         1 <0>         0.1043
     29 H10        -2.1388   -3.3774   -0.0409 H         1 <0>         0.1239
     30 H11        -2.0738   -2.2377   -1.4066 H         1 <0>         0.1015
     31 H12        -4.0347   -2.9476    1.4723 H         1 <0>         0.1752
     32 H13        -7.0310   -2.6104    1.8517 H         1 <0>         0.1488
     33 H14        -8.4108    1.2588    0.7019 H         1 <0>         0.1570
     34 H15        -6.1309    1.9209    0.0858 H         1 <0>         0.1502
     35 H16        -1.2522    0.2303    2.5637 H         1 <0>         0.3998
     36 H17        -0.6613   -0.9138    3.6429 H         1 <0>         0.4300
     37 H18        -1.6679    0.1782   -0.8429 H         1 <0>         0.4405
@<TRIPOS>BOND
     1    1    2 1
     2    1   20 1
     3    1   21 1
     4    1   22 1
     5    2    3 1
     6    2    4 1
     7    2   23 1
     8    3   24 1
     9    3   25 1
    10    3   26 1
    11    4    5 1
    12    4   27 1
    13    4   37 1
    14    5    6 1
    15    5    7 1
    16    5   17 1
    17    6   28 1
    18    6   29 1
    19    6   30 1
    20    7   15 1
    21    7    8 2
    22    8    9 1
    23    8   31 1
    24    9   14 ar
    25    9   10 ar
    26   10   11 ar
    27   10   32 1
    28   11   12 ar
    29   11   16 1
    30   12   13 ar
    31   12   33 1
    32   13   14 ar
    33   13   34 1
    34   14   15 1
    35   17   18 2
    36   17   19 am
    37   19   35 1
    38   19   36 1
@<TRIPOS>MOLECULE
ZINC42445275
   43    43     0     0     0
SMALL
USER_CHARGES

@<TRIPOS>ATOM
      1 C1         -0.9057    0.1262    0.1661 C.3       1 <0>        -0.1899
      2 C2          0.6199    0.1316    0.0500 C.3       1 <0>        -0.0247
      3 N1          1.0154   -0.4650   -1.2328 N.4       1 <0>        -0.3842
      4 C3          2.4751   -0.3880   -1.3793 C.3       1 <0>        -0.0115
      5 C4          2.8962    1.0753   -1.5287 C.3       1 <0>         0.0271
      6 O1          2.6868    1.7599   -0.2919 O.3       1 <0>        -0.3182
      7 C5          2.9240    3.0981   -0.2796 C.ar      1 <0>         0.1216
      8 C6          3.3441    3.7397   -1.4356 C.ar      1 <0>        -0.1962
      9 C7          3.5848    5.1000   -1.4209 C.ar      1 <0>        -0.0486
     10 C8          3.4071    5.8223   -0.2544 C.ar      1 <0>        -0.1161
     11 C9          2.9886    5.1842    0.8996 C.ar      1 <0>        -0.0486
     12 C10         2.7410    3.8252    0.8876 C.ar      1 <0>        -0.1355
     13 Br1         3.7372    7.6841   -0.2372 Br        1 <0>        -0.0298
     14 C11         0.5931   -1.8715   -1.2696 C.3       1 <0>        -0.0108
     15 C12         0.9190   -2.4661   -2.6412 C.3       1 <0>        -0.0494
     16 H1          1.9846   -2.3546   -2.8416 H         1 <0>         0.1152
     17 C13         0.1180   -1.7323   -3.7186 C.3       1 <0>        -0.1618
     18 C14         0.5558   -3.9286   -2.6538 C.2       1 <0>         0.3554
     19 N2         -0.5941   -4.3047   -3.1068 N.2       1 <0>        -0.4017
     20 O2         -0.9354   -5.6789   -3.1187 O.3       1 <0>        -0.4117
     21 N3          1.4498   -4.8642   -2.1825 N.pl3     1 <0>        -0.8687
     22 H2         -1.3320    0.7504   -0.6192 H         1 <0>         0.0803
     23 H3         -1.2746   -0.8939    0.0599 H         1 <0>         0.0785
     24 H4         -1.1973    0.5185    1.1404 H         1 <0>         0.1074
     25 H5          0.9846    1.1575    0.1014 H         1 <0>         0.1545
     26 H6          1.0486   -0.4478    0.8677 H         1 <0>         0.1294
     27 H7          2.9518   -0.8150   -0.4969 H         1 <0>         0.1469
     28 H8          2.7814   -0.9464   -2.2638 H         1 <0>         0.1517
     29 H9          3.9516    1.1241   -1.7968 H         1 <0>         0.1153
     30 H10         2.3006    1.5468   -2.3104 H         1 <0>         0.0892
     31 H11         3.4833    3.1762   -2.3463 H         1 <0>         0.1370
     32 H12         3.9121    5.5998   -2.3205 H         1 <0>         0.1420
     33 H13         2.8509    5.7498    1.8092 H         1 <0>         0.1468
     34 H14         2.4094    3.3284    1.7874 H         1 <0>         0.1430
     35 H15         1.1213   -2.4298   -0.4968 H         1 <0>         0.1367
     36 H16        -0.4807   -1.9332   -1.0928 H         1 <0>         0.1453
     37 H17         0.2746   -2.2180   -4.6818 H         1 <0>         0.0912
     38 H18        -0.9419   -1.7603   -3.4656 H         1 <0>         0.0875
     39 H19         0.4505   -0.6959   -3.7759 H         1 <0>         0.0604
     40 H20        -1.8152   -5.8626   -3.4754 H         1 <0>         0.4100
     41 H21         2.3132   -4.5819   -1.8424 H         1 <0>         0.3967
     42 H22         1.2160   -5.8056   -2.1906 H         1 <0>         0.4163
     43 H23         0.5746    0.0384   -1.9880 H         1 <0>         0.4220
@<TRIPOS>BOND
     1    1    2 1
     2    1   22 1
     3    1   23 1
     4    1   24 1
     5    2    3 1
     6    2   25 1
     7    2   26 1
     8    3    4 1
     9    3   14 1
    10    3   43 1
    11    4    5 1
    12    4   27 1
    13    4   28 1
    14    5    6 1
    15    5   29 1
    16    5   30 1
    17    6    7 1
    18    7   12 ar
    19    7    8 ar
    20    8    9 ar
    21    8   31 1
    22    9   10 ar
    23    9   32 1
    24   10   11 ar
    25   10   13 1
    26   11   12 ar
    27   11   33 1
    28   12   34 1
    29   14   15 1
    30   14   35 1
    31   14   36 1
    32   15   16 1
    33   15   17 1
    34   15   18 1
    35   17   37 1
    36   17   38 1
    37   17   39 1
    38   18   19 2
    39   18   21 1
    40   19   20 1
    41   20   40 1
    42   21   41 1
    43   21   42 1
@<TRIPOS>MOLECULE
ZINC52094580
   35    37     0     0     0
SMALL
USER_CHARGES

@<TRIPOS>ATOM
      1 C1         -0.0187    1.5258    0.0104 C.3       1 <0>        -0.1877
      2 C2          0.0021   -0.0041    0.0020 C.3       1 <0>        -0.0194
      3 N1         -1.3761   -0.5125    0.0124 N.4       1 <0>        -0.5095
      4 C3         -1.3562   -1.9814    0.0044 C.3       1 <0>         0.1885
      5 H1         -0.7699   -2.3321   -0.8450 H         1 <0>         0.1677
      6 C4         -2.7657   -2.5023   -0.1088 C.2       1 <0>        -0.2603
      7 C5         -3.2324   -3.5531   -0.8266 C.2       1 <0>        -0.0642
      8 C6         -4.5812   -3.8514   -0.7789 C.2       1 <0>        -0.1719
      9 C7         -5.3975   -3.0842   -0.0157 C.2       1 <0>        -0.1086
     10 S1         -4.2530   -1.9002    0.6739 S.3       1 <0>         0.0568
     11 C8         -0.7367   -2.4824    1.2835 C.ar      1 <0>        -0.0989
     12 C9         -0.7735   -1.6970    2.4193 C.ar      1 <0>        -0.1100
     13 C10        -0.2036   -2.1578    3.5959 C.ar      1 <0>         0.1270
     14 C11         0.4054   -3.4143    3.6287 C.ar      1 <0>         0.1267
     15 C12         0.4378   -4.1959    2.4844 C.ar      1 <0>        -0.0600
     16 C13        -0.1379   -3.7306    1.3170 C.ar      1 <0>        -0.0580
     17 Br1        -0.1014   -4.7997   -0.2423 Br        1 <0>        -0.0062
     18 N2          0.8790   -3.5983    4.9256 N.am      1 <0>        -0.6350
     19 H2          1.3498   -4.3810    5.2522 H         1 <0>         0.4470
     20 C14         0.5724   -2.5047    5.6485 C.2       1 <0>         0.6877
     21 O1          0.8450   -2.3422    6.8233 O.2       1 <0>        -0.5195
     22 N3         -0.0809   -1.6178    4.8744 N.am      1 <0>        -0.6376
     23 H3         -0.4098   -0.7505    5.1583 H         1 <0>         0.4436
     24 H4          1.0039    1.9031    0.0027 H         1 <0>         0.1110
     25 H5         -0.5459    1.8868   -0.8726 H         1 <0>         0.0842
     26 H6         -0.5289    1.8773    0.9072 H         1 <0>         0.0805
     27 H7          0.5123   -0.3556   -0.8948 H         1 <0>         0.1395
     28 H8          0.5293   -0.3651    0.8851 H         1 <0>         0.1348
     29 H9         -1.8484   -0.1871    0.8426 H         1 <0>         0.4219
     30 H10        -2.5604   -4.1483   -1.4272 H         1 <0>         0.1455
     31 H11        -4.9789   -4.6830   -1.3416 H         1 <0>         0.1527
     32 H12        -6.4630   -3.1696    0.1384 H         1 <0>         0.2010
     33 H13        -1.2449   -0.7257    2.3906 H         1 <0>         0.1342
     34 H14         0.9080   -5.1680    2.5060 H         1 <0>         0.1589
     35 H15        -1.8641   -0.1783   -0.8050 H         1 <0>         0.4376
@<TRIPOS>BOND
     1    1    2 1
     2    1   24 1
     3    1   25 1
     4    1   26 1
     5    2    3 1
     6    2   27 1
     7    2   28 1
     8    3    4 1
     9    3   29 1
    10    3   35 1
    11    4    5 1
    12    4    6 1
    13    4   11 1
    14    6   10 1
    15    6    7 2
    16    7    8 1
    17    7   30 1
    18    8    9 2
    19    8   31 1
    20    9   10 1
    21    9   32 1
    22   11   16 ar
    23   11   12 ar
    24   12   13 ar
    25   12   33 1
    26   13   22 1
    27   13   14 ar
    28   14   15 ar
    29   14   18 1
    30   15   16 ar
    31   15   34 1
    32   16   17 1
    33   18   19 1
    34   18   20 am
    35   20   21 2
    36   20   22 am
    37   22   23 1
@<TRIPOS>MOLECULE
ZINC65525878
   45    47     0     0     0
SMALL
USER_CHARGES

@<TRIPOS>ATOM
      1 C1         -0.1114    1.4599    0.4914 C.3       1 <0>        -0.1549
      2 C2         -0.0867   -0.0639    0.3556 C.3       1 <0>        -0.0862
      3 C3          0.6077   -0.6734    1.5751 C.3       1 <0>        -0.1584
      4 C4         -1.5202   -0.5914    0.2685 C.3       1 <0>        -0.1438
      5 C5         -1.4940   -2.0989    0.0079 C.3       1 <0>         0.1851
      6 H1         -0.9645   -2.6190    0.8062 H         1 <0>         0.1832
      7 N1         -2.8752   -2.6332   -0.1465 N.4       1 <0>        -0.5542
      8 C6         -2.6652   -3.8302   -0.9973 C.3       1 <0>         0.3178
      9 H2         -2.6192   -4.7266   -0.3788 H         1 <0>         0.1763
     10 N2         -1.3804   -3.6230   -1.6846 N.pl3     1 <0>        -0.5160
     11 N3         -0.8816   -2.3955   -1.3119 N.3       1 <0>        -0.3973
     12 C7         -0.7673   -4.5215   -2.5633 C.ar      1 <0>         0.1764
     13 C8         -1.4487   -4.9709   -3.6861 C.ar      1 <0>        -0.1427
     14 C9         -0.8391   -5.8595   -4.5538 C.ar      1 <0>         0.1160
     15 C10         0.4495   -6.3005   -4.3029 C.ar      1 <0>        -0.1100
     16 C11         1.1304   -5.8549   -3.1850 C.ar      1 <0>        -0.1068
     17 C12         0.5286   -4.9623   -2.3172 C.ar      1 <0>         0.1080
     18 F1          1.1969   -4.5229   -1.2284 F         1 <0>        -0.1169
     19 F2         -1.5017   -6.2977   -5.6465 F         1 <0>        -0.1210
     20 C13        -3.7796   -3.9525   -2.0044 C.2       1 <0>         0.0421
     21 C14        -4.5486   -5.0662   -2.0201 C.2       1 <0>        -0.1262
     22 C15        -5.5870   -5.1865   -2.9543 C.2       1 <0>        -0.0399
     23 C16        -5.8085   -4.1726   -3.8394 C.2       1 <0>        -0.1793
     24 C17        -4.9912   -3.0302   -3.7953 C.2       1 <0>         0.5177
     25 O1         -5.1787   -2.1153   -4.5812 O.2       1 <0>        -0.5139
     26 N4         -4.0051   -2.9419   -2.8825 N.am      1 <0>        -0.6144
     27 H3         -3.4472   -2.1489   -2.8545 H         1 <0>         0.4041
     28 H4          0.9098    1.8357    0.5535 H         1 <0>         0.0705
     29 H5         -0.6062    1.8941   -0.3773 H         1 <0>         0.0596
     30 H6         -0.6556    1.7354    1.3948 H         1 <0>         0.0612
     31 H7          0.4574   -0.3394   -0.5478 H         1 <0>         0.0896
     32 H8          0.6254   -1.7589    1.4784 H         1 <0>         0.0560
     33 H9          1.6290   -0.2975    1.6372 H         1 <0>         0.0711
     34 H10         0.0636   -0.3979    2.4785 H         1 <0>         0.0614
     35 H11        -2.0378   -0.3940    1.2072 H         1 <0>         0.1105
     36 H12        -2.0427   -0.0909   -0.5468 H         1 <0>         0.0914
     37 H13        -3.2604   -2.8936    0.7490 H         1 <0>         0.4548
     38 H14        -1.1228   -1.6880   -1.9896 H         1 <0>         0.3532
     39 H15        -2.4538   -4.6275   -3.8819 H         1 <0>         0.1421
     40 H16         0.9234   -6.9942   -4.9816 H         1 <0>         0.1591
     41 H17         2.1350   -6.2012   -2.9917 H         1 <0>         0.1609
     42 H18        -4.3621   -5.8617   -1.3139 H         1 <0>         0.1620
     43 H19        -6.2045   -6.0724   -2.9731 H         1 <0>         0.1568
     44 H20        -6.6035   -4.2471   -4.5666 H         1 <0>         0.1667
     45 H21        -3.4684   -1.9628   -0.6120 H         1 <0>         0.4283
@<TRIPOS>BOND
     1    1    2 1
     2    1   28 1
     3    1   29 1
     4    1   30 1
     5    2    3 1
     6    2    4 1
     7    2   31 1
     8    3   32 1
     9    3   33 1
    10    3   34 1
    11    4    5 1
    12    4   35 1
    13    4   36 1
    14    5    6 1
    15    5   11 1
    16    5    7 1
    17    7    8 1
    18    7   37 1
    19    7   45 1
    20    8    9 1
    21    8   10 1
    22    8   20 1
    23   10   11 1
    24   10   12 1
    25   11   38 1
    26   12   17 ar
    27   12   13 ar
    28   13   14 ar
    29   13   39 1
    30   14   15 ar
    31   14   19 1
    32   15   16 ar
    33   15   40 1
    34   16   17 ar
    35   16   41 1
    36   17   18 1
    37   20   26 1
    38   20   21 2
    39   21   22 1
    40   21   42 1
    41   22   23 2
    42   22   43 1
    43   23   24 1
    44   23   44 1
    45   24   25 2
    46   24   26 am
    47   26   27 1
@<TRIPOS>MOLECULE
ZINC02325645
   41    44     0     0     0
SMALL
USER_CHARGES
methoxy-methyl-(p-tolylsulfonyl)BLAH
@<TRIPOS>ATOM
      1 C1          0.0788   -1.8182    5.7560 C.3       1 <0>        -0.1280
      2 C2          0.0597   -1.3659    4.3186 C.ar      1 <0>        -0.0177
      3 C3         -1.1461   -1.1739    3.6705 C.ar      1 <0>        -0.1393
      4 C4         -1.1637   -0.7582    2.3522 C.ar      1 <0>        -0.0098
      5 C5          0.0245   -0.5340    1.6823 C.ar      1 <0>        -0.6842
      6 C6          1.2303   -0.7311    2.3288 C.ar      1 <0>        -0.0104
      7 C7          1.2479   -1.1426    3.6484 C.ar      1 <0>        -0.1388
      8 S1          0.0021   -0.0041    0.0020 S.o2      1 <0>         2.6669
      9 O1         -1.2426   -0.4241   -0.5398 O.2       1 <0>        -0.9196
     10 O2          1.2477   -0.3902   -0.5623 O.2       1 <0>        -0.9184
     11 N1         -0.0204    1.6518    0.0111 N.pl3     1 <0>        -0.7760
     12 C8         -1.1641    2.4326    0.0202 C.ar      1 <0>         0.0824
     13 C9         -2.5196    2.1198    0.0384 C.ar      1 <0>        -0.0774
     14 C10        -3.4583    3.1286    0.0527 C.ar      1 <0>        -0.1686
     15 C11        -3.0642    4.4630    0.0550 C.ar      1 <0>         0.1248
     16 C12        -1.7212    4.7908    0.0432 C.ar      1 <0>        -0.1031
     17 C13        -0.7667    3.7757    0.0287 C.ar      1 <0>         0.0064
     18 C14         0.7210    3.7924    0.0147 C.2       1 <0>         0.0425
     19 C15         1.0831    2.4500    0.0049 C.2       1 <0>         0.0021
     20 S2          2.8588    2.5457   -0.0114 S.3       1 <0>         0.1068
     21 C16         2.9857    4.3284   -0.0041 C.2       1 <0>         0.1272
     22 N2          1.7296    4.6878    0.0095 N.2       1 <0>        -0.4676
     23 C17         4.2204    5.1923   -0.0120 C.3       1 <0>        -0.0624
     24 O3         -4.0025    5.4473    0.0692 O.3       1 <0>        -0.3119
     25 C18        -5.3717    5.0383    0.0808 C.3       1 <0>         0.0242
     26 H1          0.0932   -2.9074    5.7940 H         1 <0>         0.0836
     27 H2          0.9684   -1.4256    6.2486 H         1 <0>         0.0759
     28 H3         -0.8113   -1.4486    6.2651 H         1 <0>         0.0758
     29 H4         -2.0745   -1.3484    4.1941 H         1 <0>         0.1387
     30 H5         -2.1058   -0.6082    1.8458 H         1 <0>         0.1424
     31 H6          2.1587   -0.5601    1.8041 H         1 <0>         0.1419
     32 H7          2.1899   -1.2923    4.1549 H         1 <0>         0.1389
     33 H8         -2.8360    1.0872    0.0364 H         1 <0>         0.1516
     34 H9         -4.5095    2.8812    0.0627 H         1 <0>         0.1459
     35 H10        -1.4141    5.8262    0.0449 H         1 <0>         0.1448
     36 H11         4.5080    5.4056   -1.0416 H         1 <0>         0.0970
     37 H12         4.0129    6.1274    0.5083 H         1 <0>         0.1009
     38 H13         5.0333    4.6690    0.4913 H         1 <0>         0.0928
     39 H14        -6.0139    5.9190    0.0915 H         1 <0>         0.1034
     40 H15        -5.5816    4.4464   -0.8101 H         1 <0>         0.0586
     41 H16        -5.5639    4.4376    0.9697 H         1 <0>         0.0579
@<TRIPOS>BOND
     1    1    2 1
     2    1   26 1
     3    1   27 1
     4    1   28 1
     5    2    7 ar
     6    2    3 ar
     7    3    4 ar
     8    3   29 1
     9    4    5 ar
    10    4   30 1
    11    5    6 ar
    12    5    8 1
    13    6    7 ar
    14    6   31 1
    15    7   32 1
    16    8    9 2
    17    8   10 2
    18    8   11 1
    19   11   19 1
    20   11   12 1
    21   12   17 ar
    22   12   13 ar
    23   13   14 ar
    24   13   33 1
    25   14   15 ar
    26   14   34 1
    27   15   16 ar
    28   15   24 1
    29   16   17 ar
    30   16   35 1
    31   17   18 1
    32   18   22 1
    33   18   19 2
    34   19   20 1
    35   20   21 1
    36   21   22 2
    37   21   23 1
    38   23   36 1
    39   23   37 1
    40   23   38 1
    41   24   25 1
    42   25   39 1
    43   25   40 1
    44   25   41 1
@<TRIPOS>MOLECULE
ZINC09724907
   48    51     0     0     0
SMALL
USER_CHARGES
2-[[5,7-dimethyl-3-oxo-9-(p-tolyl)-2,8,9-triazabicyclo[4.3.0]nona-4,7,10-trien-2-yl]methyl]benzonitrile
@<TRIPOS>ATOM
      1 C1          2.2311    4.7099   -0.0375 C.3       1 <0>        -0.1196
      2 C2          1.1384    3.6898    0.1532 C.ar      1 <0>        -0.0655
      3 C3         -0.1323    3.9411   -0.3309 C.ar      1 <0>        -0.1104
      4 C4         -1.1359    3.0081   -0.1576 C.ar      1 <0>        -0.1153
      5 C5         -0.8694    1.8196    0.5089 C.ar      1 <0>         0.1166
      6 C6          0.4088    1.5680    0.9896 C.ar      1 <0>        -0.0736
      7 C7          1.4084    2.5045    0.8124 C.ar      1 <0>        -0.1108
      8 N1         -1.8870    0.8737    0.6918 N.pl3     1 <0>        -0.3258
      9 C8         -3.0640    1.0861    1.3368 C.2       1 <0>         0.3570
     10 C9         -3.7769   -0.1138    1.2841 C.2       1 <0>        -0.2613
     11 C10        -5.0570   -0.1905    1.8791 C.2       1 <0>         0.0771
     12 C11        -5.5705    0.9109    2.4878 C.2       1 <0>        -0.2721
     13 C12        -4.8300    2.1067    2.5198 C.2       1 <0>         0.5474
     14 O1         -5.2983    3.0906    3.0682 O.2       1 <0>        -0.5242
     15 N2         -3.6109    2.1786    1.9533 N.am      1 <0>        -0.4945
     16 C13        -2.8611    3.4363    2.0010 C.3       1 <0>         0.1027
     17 C14        -2.7242    3.8854    3.4330 C.ar      1 <0>        -0.0578
     18 C15        -3.4380    4.9753    3.8872 C.ar      1 <0>        -0.0673
     19 C16        -3.3131    5.3892    5.2013 C.ar      1 <0>        -0.0911
     20 C17        -2.4728    4.7140    6.0692 C.ar      1 <0>        -0.1099
     21 C18        -1.7537    3.6227    5.6286 C.ar      1 <0>        -0.0762
     22 C19        -1.8791    3.1962    4.3047 C.ar      1 <0>        -0.0194
     23 C20        -1.1396    2.0606    3.8418 C.1       1 <0>         0.2389
     24 N3         -0.5530    1.1597    3.4746 N.1       1 <0>        -0.3990
     25 C21        -5.8415   -1.4766    1.8395 C.3       1 <0>        -0.1315
     26 C22        -2.9709   -1.0463    0.5895 C.2       1 <0>         0.1402
     27 N4         -1.8623   -0.4533    0.2465 N.2       1 <0>        -0.2584
     28 C23        -3.3323   -2.4798    0.2968 C.3       1 <0>        -0.0846
     29 H1          2.2408    5.3948    0.8104 H         1 <0>         0.0772
     30 H2          3.1935    4.2029   -0.1061 H         1 <0>         0.0718
     31 H3          2.0492    5.2699   -0.9549 H         1 <0>         0.0723
     32 H4         -0.3402    4.8677   -0.8453 H         1 <0>         0.1384
     33 H5         -2.1280    3.2048   -0.5363 H         1 <0>         0.1296
     34 H6          0.6201    0.6428    1.5051 H         1 <0>         0.1413
     35 H7          2.4018    2.3111    1.1893 H         1 <0>         0.1347
     36 H8         -6.5470    0.8680    2.9472 H         1 <0>         0.1557
     37 H9         -1.8709    3.2856    1.5712 H         1 <0>         0.1171
     38 H10        -3.3927    4.1981    1.4306 H         1 <0>         0.1022
     39 H11        -4.0955    5.5067    3.2151 H         1 <0>         0.1358
     40 H12        -3.8742    6.2429    5.5516 H         1 <0>         0.1344
     41 H13        -2.3803    5.0422    7.0939 H         1 <0>         0.1360
     42 H14        -1.0980    3.0969    6.3068 H         1 <0>         0.1332
     43 H15        -5.5284   -2.1187    2.6628 H         1 <0>         0.0863
     44 H16        -6.9048   -1.2566    1.9345 H         1 <0>         0.0787
     45 H17        -5.6587   -1.9847    0.8927 H         1 <0>         0.0827
     46 H18        -3.0905   -3.0990    1.1607 H         1 <0>         0.0883
     47 H19        -4.3996   -2.5499    0.0869 H         1 <0>         0.0905
     48 H20        -2.7681   -2.8273   -0.5686 H         1 <0>         0.0822
@<TRIPOS>BOND
     1    1    2 1
     2    1   29 1
     3    1   30 1
     4    1   31 1
     5    2    7 ar
     6    2    3 ar
     7    3    4 ar
     8    3   32 1
     9    4    5 ar
    10    4   33 1
    11    5    6 ar
    12    5    8 1
    13    6    7 ar
    14    6   34 1
    15    7   35 1
    16    8   27 1
    17    8    9 1
    18    9   15 1
    19    9   10 2
    20   10   11 1
    21   10   26 1
    22   11   12 2
    23   11   25 1
    24   12   13 1
    25   12   36 1
    26   13   14 2
    27   13   15 am
    28   15   16 1
    29   16   17 1
    30   16   37 1
    31   16   38 1
    32   17   22 ar
    33   17   18 ar
    34   18   19 ar
    35   18   39 1
    36   19   20 ar
    37   19   40 1
    38   20   21 ar
    39   20   41 1
    40   21   22 ar
    41   21   42 1
    42   22   23 1
    43   23   24 3
    44   25   43 1
    45   25   44 1
    46   25   45 1
    47   26   27 2
    48   26   28 1
    49   28   46 1
    50   28   47 1
    51   28   48 1
@<TRIPOS>MOLECULE
ZINC31969689
   41    44     0     0     0
SMALL
USER_CHARGES
(4E)-2-(1,3-benzothiazol-2-yl)-4-(dimethylaminomethylene)-5-phenyl-pyrazol-3-one
@<TRIPOS>ATOM
      1 C1          1.7692    3.5291    0.1683 C.3       1 <0>         0.0490
      2 N1          3.1361    3.9464   -0.1535 N.pl3     1 <0>        -0.5771
      3 C2          3.6926    5.1600    0.4496 C.3       1 <0>         0.0659
      4 C3          3.8826    3.2130   -1.0055 C.2       1 <0>         0.3400
      5 C4          3.7442    1.8384   -1.0378 C.2       1 <0>        -0.3834
      6 C5          3.1416    0.9769   -0.0007 C.2       1 <0>         0.2070
      7 N2          3.2193   -0.2559   -0.4308 N.2       1 <0>        -0.2438
      8 N3          3.8239   -0.2901   -1.6885 N.am      1 <0>        -0.3716
      9 C6          4.1529    0.9568   -2.0769 C.2       1 <0>         0.5513
     10 O1          4.6982    1.2707   -3.1213 O.2       1 <0>        -0.4848
     11 C7          4.0559   -1.4405   -2.4282 C.2       1 <0>         0.4088
     12 N4          4.6128   -1.5606   -3.6108 N.2       1 <0>        -0.5212
     13 C8          4.7800   -2.7556   -4.2164 C.ar      1 <0>         0.1055
     14 C9          5.3643   -3.0219   -5.4767 C.ar      1 <0>        -0.0662
     15 C10         5.4520   -4.3044   -5.9506 C.ar      1 <0>        -0.1062
     16 C11         4.9746   -5.3824   -5.2187 C.ar      1 <0>        -0.1027
     17 C12         4.3968   -5.1589   -3.9826 C.ar      1 <0>        -0.0602
     18 C13         4.3049   -3.8774   -3.4993 C.ar      1 <0>        -0.1591
     19 S1          3.6656   -3.1354   -2.0169 S.3       1 <0>         0.0388
     20 C14         2.5634    1.4244    1.2879 C.ar      1 <0>        -0.0283
     21 C15         1.3498    0.8991    1.7307 C.ar      1 <0>        -0.0869
     22 C16         0.8140    1.3233    2.9294 C.ar      1 <0>        -0.1164
     23 C17         1.4836    2.2596    3.6968 C.ar      1 <0>        -0.1019
     24 C18         2.6876    2.7846    3.2626 C.ar      1 <0>        -0.1249
     25 C19         3.2309    2.3721    2.0632 C.ar      1 <0>        -0.0873
     26 H1          1.5309    2.6032   -0.3757 H         1 <0>         0.0883
     27 H2          1.0649    4.3203   -0.1283 H         1 <0>         0.0716
     28 H3          1.6855    3.3505    1.2505 H         1 <0>         0.0908
     29 H4          4.7218    5.3089    0.0910 H         1 <0>         0.0882
     30 H5          3.6972    5.0563    1.5447 H         1 <0>         0.0794
     31 H6          3.0766    6.0261    0.1659 H         1 <0>         0.0760
     32 H7          4.6012    3.7093   -1.6743 H         1 <0>         0.1703
     33 H8          5.7458   -2.2053   -6.0718 H         1 <0>         0.1339
     34 H9          5.9028   -4.4805   -6.9161 H         1 <0>         0.1350
     35 H10         5.0536   -6.3856   -5.6106 H         1 <0>         0.1392
     36 H11         4.0208   -5.9875   -3.4007 H         1 <0>         0.1342
     37 H12         0.8282    0.1652    1.1344 H         1 <0>         0.1320
     38 H13        -0.1281    0.9206    3.2712 H         1 <0>         0.1318
     39 H14         1.0623    2.5855    4.6363 H         1 <0>         0.1288
     40 H15         3.2036    3.5185    3.8639 H         1 <0>         0.1301
     41 H16         4.1709    2.7827    1.7253 H         1 <0>         0.1260
@<TRIPOS>BOND
     1    1    2 1
     2    1   26 1
     3    1   27 1
     4    1   28 1
     5    2    3 1
     6    2    4 1
     7    3   29 1
     8    3   30 1
     9    3   31 1
    10    4    5 2
    11    4   32 1
    12    5    9 1
    13    5    6 1
    14    6    7 2
    15    6   20 1
    16    7    8 1
    17    8    9 am
    18    8   11 1
    19    9   10 2
    20   11   19 1
    21   11   12 2
    22   12   13 1
    23   13   18 ar
    24   13   14 ar
    25   14   15 ar
    26   14   33 1
    27   15   16 ar
    28   15   34 1
    29   16   17 ar
    30   16   35 1
    31   17   18 ar
    32   17   36 1
    33   18   19 1
    34   20   25 ar
    35   20   21 ar
    36   21   22 ar
    37   21   37 1
    38   22   23 ar
    39   22   38 1
    40   23   24 ar
    41   23   39 1
    42   24   25 ar
    43   24   40 1
    44   25   41 1
@<TRIPOS>MOLECULE
ZINC55778519
   41    43     0     0     0
SMALL
USER_CHARGES

@<TRIPOS>ATOM
      1 C1         -0.0631    1.2549   -0.1958 C.ar      1 <0>        -0.0639
      2 C2          1.0302    2.0762    0.0086 C.ar      1 <0>        -0.1172
      3 C3          2.2830    1.5245    0.1989 C.ar      1 <0>        -0.0535
      4 C4          2.4430    0.1513    0.1853 C.ar      1 <0>        -0.0340
      5 C5          1.3500   -0.6698   -0.0183 C.ar      1 <0>        -0.0001
      6 C6          0.0969   -0.1178   -0.2100 C.ar      1 <0>        -0.1108
      7 C7          1.5245   -2.1665   -0.0341 C.3       1 <0>        -0.1178
      8 C8          1.5714   -2.6819    1.3812 C.2       1 <0>         0.5485
      9 O1          1.4728   -1.9097    2.3113 O.2       1 <0>        -0.5261
     10 N1          1.7229   -4.0008    1.6135 N.am      1 <0>        -0.6126
     11 C9          1.8606   -5.0447    0.5816 C.3       1 <0>         0.0945
     12 C10         1.3881   -6.3488    1.2714 C.3       1 <0>        -0.1319
     13 C11         1.9339   -6.1553    2.7108 C.3       1 <0>        -0.1228
     14 C12         1.7846   -4.6360    2.9380 C.3       1 <0>         0.1791
     15 H1          0.8662   -4.4340    3.4892 H         1 <0>         0.0909
     16 C13         2.9714   -4.1105    3.7036 C.ar      1 <0>        -0.0815
     17 C14         4.0158   -3.5052    3.0300 C.ar      1 <0>        -0.0847
     18 C15         5.1044   -3.0231    3.7321 C.ar      1 <0>        -0.1114
     19 C16         5.1495   -3.1459    5.1085 C.ar      1 <0>        -0.1091
     20 C17         4.1061   -3.7509    5.7831 C.ar      1 <0>        -0.1123
     21 C18         3.0134   -4.2286    5.0813 C.ar      1 <0>        -0.0283
     22 Cl1         1.6992   -4.9828    5.9286 Cl        1 <0>        -0.0716
     23 N2          3.7849   -0.4395    0.3881 N.pl3     1 <0>         0.0431
     24 O2          4.7561    0.2768    0.4610 O.2       1 <0>        -0.1575
     25 O3          3.9098   -1.6385    0.4809 O.3       1 <0>        -0.1676
     26 H2         -1.0428    1.6859   -0.3401 H         1 <0>         0.1450
     27 H3          0.9052    3.1489    0.0193 H         1 <0>         0.1485
     28 H4          3.1371    2.1661    0.3580 H         1 <0>         0.1539
     29 H5         -0.7571   -0.7594   -0.3694 H         1 <0>         0.1457
     30 H6          0.6867   -2.6245   -0.5600 H         1 <0>         0.1092
     31 H7          2.4546   -2.4185   -0.5436 H         1 <0>         0.1294
     32 H8          1.2261   -4.8173   -0.2750 H         1 <0>         0.0802
     33 H9          2.9012   -5.1356    0.2705 H         1 <0>         0.0773
     34 H10         0.3003   -6.4184    1.2721 H         1 <0>         0.0794
     35 H11         1.8337   -7.2242    0.7990 H         1 <0>         0.0901
     36 H12         1.3352   -6.7156    3.4289 H         1 <0>         0.0886
     37 H13         2.9820   -6.4490    2.7686 H         1 <0>         0.0822
     38 H14         3.9813   -3.4092    1.9548 H         1 <0>         0.1370
     39 H15         5.9203   -2.5505    3.2054 H         1 <0>         0.1289
     40 H16         6.0005   -2.7694    5.6566 H         1 <0>         0.1308
     41 H17         4.1416   -3.8471    6.8582 H         1 <0>         0.1326
@<TRIPOS>BOND
     1    1    6 ar
     2    1    2 ar
     3    1   26 1
     4    2    3 ar
     5    2   27 1
     6    3    4 ar
     7    3   28 1
     8    4    5 ar
     9    4   23 1
    10    5    6 ar
    11    5    7 1
    12    6   29 1
    13    7    8 1
    14    7   30 1
    15    7   31 1
    16    8    9 2
    17    8   10 am
    18   10   14 1
    19   10   11 1
    20   11   12 1
    21   11   32 1
    22   11   33 1
    23   12   13 1
    24   12   34 1
    25   12   35 1
    26   13   14 1
    27   13   36 1
    28   13   37 1
    29   14   15 1
    30   14   16 1
    31   16   21 ar
    32   16   17 ar
    33   17   18 ar
    34   17   38 1
    35   18   19 ar
    36   18   39 1
    37   19   20 ar
    38   19   40 1
    39   20   21 ar
    40   20   41 1
    41   21   22 1
    42   23   24 2
    43   23   25 1
@<TRIPOS>MOLECULE
ZINC63443026
   55    58     0     0     0
SMALL
USER_CHARGES

@<TRIPOS>ATOM
      1 C1          9.3797   -9.4147   -0.9718 C.ar      1 <0>        -0.2596
      2 C2          9.0239   -8.8895    0.2605 C.ar      1 <0>         0.1716
      3 N1          8.5331   -7.6627    0.3217 N.ar      1 <0>        -0.5378
      4 C3          8.3806   -6.9387   -0.7773 C.ar      1 <0>         0.5602
      5 N2          8.7104   -7.4111   -1.9704 N.ar      1 <0>        -0.5407
      6 C4          9.2070   -8.6301   -2.1013 C.ar      1 <0>         0.1716
      7 N3          7.8640   -5.6586   -0.6768 N.pl3     1 <0>        -0.6153
      8 C5          8.4672   -4.6775    0.2355 C.3       1 <0>         0.1417
      9 C6          7.3737   -4.1180    1.1510 C.3       1 <0>        -0.1326
     10 C7          6.2328   -3.5624    0.2956 C.3       1 <0>        -0.1015
     11 C8          5.6286   -4.6888   -0.5460 C.3       1 <0>        -0.1510
     12 C9          6.7058   -5.2531   -1.4848 C.3       1 <0>         0.0938
     13 C10         4.4844   -4.1476   -1.3638 C.2       1 <0>         0.5421
     14 O1          4.5902   -3.0745   -1.9190 O.2       1 <0>        -0.5078
     15 N4          3.3435   -4.8559   -1.4782 N.am      1 <0>        -0.6291
     16 C11         2.0561   -4.1622   -1.5639 C.3       1 <0>         0.1489
     17 C12         1.9829   -3.3434   -2.8693 C.3       1 <0>        -0.1427
     18 C13         1.2218   -2.0555   -2.4677 C.3       1 <0>        -0.1201
     19 C14         1.7700   -1.7628   -1.0489 C.3       1 <0>        -0.1200
     20 C15         1.9207   -3.1572   -0.4065 C.3       1 <0>        -0.1320
     21 C16         3.3909   -6.3196   -1.5167 C.3       1 <0>         0.1462
     22 C17         3.7029   -6.8755   -0.1119 C.3       1 <0>        -0.1526
     23 C18         4.6191   -8.0951   -0.3809 C.3       1 <0>        -0.1177
     24 C19         5.4979   -7.6090   -1.5601 C.3       1 <0>        -0.1768
     25 C20         4.5321   -6.7860   -2.4375 C.3       1 <0>        -0.1478
     26 H1          9.7869  -10.4120   -1.0498 H         1 <0>         0.1466
     27 H2          9.1456   -9.4750    1.1599 H         1 <0>         0.1671
     28 H3          9.4746   -9.0094   -3.0764 H         1 <0>         0.1672
     29 H4          9.2352   -5.1626    0.8380 H         1 <0>         0.0785
     30 H5          8.9109   -3.8663   -0.3417 H         1 <0>         0.0632
     31 H6          6.9937   -4.9135    1.7920 H         1 <0>         0.0711
     32 H7          7.7882   -3.3202    1.7673 H         1 <0>         0.0782
     33 H8          5.4645   -3.1414    0.9441 H         1 <0>         0.0646
     34 H9          6.6184   -2.7840   -0.3628 H         1 <0>         0.0755
     35 H10         5.2651   -5.4789    0.1110 H         1 <0>         0.1171
     36 H11         7.0088   -4.4879   -2.1995 H         1 <0>         0.0647
     37 H12         6.3113   -6.1181   -2.0178 H         1 <0>         0.1446
     38 H13         1.2402   -4.8841   -1.5289 H         1 <0>         0.0879
     39 H14         2.9845   -3.0998   -3.2235 H         1 <0>         0.0942
     40 H15         1.4300   -3.8909   -3.6326 H         1 <0>         0.0607
     41 H16         1.4584   -1.2386   -3.1494 H         1 <0>         0.0667
     42 H17         0.1472   -2.2356   -2.4370 H         1 <0>         0.0637
     43 H18         2.7373   -1.2640   -1.1092 H         1 <0>         0.0705
     44 H19         1.0618   -1.1569   -0.4838 H         1 <0>         0.0625
     45 H20         1.0387   -3.3910    0.1897 H         1 <0>         0.0695
     46 H21         2.8129   -3.1857    0.2190 H         1 <0>         0.0637
     47 H22         2.4392   -6.7145   -1.8724 H         1 <0>         0.0952
     48 H23         4.2266   -6.1295    0.4858 H         1 <0>         0.0878
     49 H24         2.7858   -7.1898    0.3863 H         1 <0>         0.0736
     50 H25         5.2326   -8.3173    0.4922 H         1 <0>         0.0690
     51 H26         4.0294   -8.9646   -0.6714 H         1 <0>         0.0689
     52 H27         6.3114   -6.9814   -1.1961 H         1 <0>         0.1156
     53 H28         5.8907   -8.4586   -2.1186 H         1 <0>         0.0640
     54 H29         4.1344   -7.4079   -3.2395 H         1 <0>         0.0794
     55 H30         5.0508   -5.9233   -2.8556 H         1 <0>         0.0776
@<TRIPOS>BOND
     1    1    6 ar
     2    1    2 ar
     3    1   26 1
     4    2    3 ar
     5    2   27 1
     6    3    4 ar
     7    4    5 ar
     8    4    7 1
     9    5    6 ar
    10    6   28 1
    11    7   12 1
    12    7    8 1
    13    8    9 1
    14    8   29 1
    15    8   30 1
    16    9   10 1
    17    9   31 1
    18    9   32 1
    19   10   11 1
    20   10   33 1
    21   10   34 1
    22   11   12 1
    23   11   13 1
    24   11   35 1
    25   12   36 1
    26   12   37 1
    27   13   14 2
    28   13   15 am
    29   15   16 1
    30   15   21 1
    31   16   20 1
    32   16   17 1
    33   16   38 1
    34   17   18 1
    35   17   39 1
    36   17   40 1
    37   18   19 1
    38   18   41 1
    39   18   42 1
    40   19   20 1
    41   19   43 1
    42   19   44 1
    43   20   45 1
    44   20   46 1
    45   21   25 1
    46   21   22 1
    47   21   47 1
    48   22   23 1
    49   22   48 1
    50   22   49 1
    51   23   24 1
    52   23   50 1
    53   23   51 1
    54   24   25 1
    55   24   52 1
    56   24   53 1
    57   25   54 1
    58   25   55 1
@<TRIPOS>MOLECULE
ZINC04491466
   35    37     0     0     0
SMALL
USER_CHARGES
3-(3-methyl-2-thienyl)-2-[4-(4-nitrophenyl)thiazol-2-yl]-prop-2-enenitrile
@<TRIPOS>ATOM
      1 C1          3.9850    3.4898   -0.0301 C.3       1 <0>        -0.1117
      2 C2          3.7278    2.0050   -0.0286 C.2       1 <0>        -0.0314
      3 C3          4.7419    1.1100   -0.0378 C.2       1 <0>        -0.1834
      4 C4          4.4443   -0.2482   -0.0426 C.2       1 <0>        -0.1840
      5 S1          2.7110   -0.2805   -0.0259 S.3       1 <0>         0.2071
      6 C5          2.4079    1.4777   -0.0130 C.2       1 <0>        -0.2386
      7 C6          1.2004    2.1531    0.0022 C.2       1 <0>         0.0935
      8 C7         -0.0173    1.4278    0.0099 C.2       1 <0>        -0.0402
      9 C8          0.0021   -0.0041    0.0020 C.1       1 <0>         0.2567
     10 N1          0.0175   -1.1399   -0.0042 N.1       1 <0>        -0.3810
     11 C9         -1.2417    2.1127    0.0194 C.2       1 <0>         0.1308
     12 N2         -2.4858    1.6132    0.0226 N.2       1 <0>        -0.4804
     13 C10        -3.5121    2.4092    0.0325 C.2       1 <0>         0.0914
     14 C11        -3.2782    3.8136    0.0398 C.2       1 <0>        -0.2365
     15 S2         -1.5420    3.8729    0.0383 S.3       1 <0>         0.1515
     16 C12        -4.8882    1.8707    0.0366 C.ar      1 <0>         0.0416
     17 C13        -5.9827    2.7404    0.0536 C.ar      1 <0>        -0.1074
     18 C14        -7.2638    2.2308    0.0520 C.ar      1 <0>        -0.0463
     19 C15        -7.4676    0.8613    0.0448 C.ar      1 <0>        -0.0062
     20 C16        -6.3884   -0.0061    0.0336 C.ar      1 <0>        -0.0479
     21 C17        -5.1018    0.4890    0.0293 C.ar      1 <0>        -0.0902
     22 N3         -8.8460    0.3219    0.0494 N.pl3     1 <0>        -0.0206
     23 O1         -9.0436   -0.9802    0.0429 O.2       1 <0>        -0.1677
     24 O2         -9.8749    1.1440    0.0600 O.3       1 <0>        -0.1678
     25 H1          4.0596    3.8467    0.9971 H         1 <0>         0.0837
     26 H2          4.9176    3.6965   -0.5552 H         1 <0>         0.0774
     27 H3          3.1639    4.0003   -0.5334 H         1 <0>         0.0747
     28 H4          5.7684    1.4456   -0.0458 H         1 <0>         0.1429
     29 H5          5.1291   -1.0832   -0.0535 H         1 <0>         0.1926
     30 H6          1.1857    3.2330    0.0081 H         1 <0>         0.1611
     31 H7         -3.9902    4.6255    0.0485 H         1 <0>         0.2064
     32 H8         -5.8252    3.8088    0.0635 H         1 <0>         0.1523
     33 H9         -8.1103    2.9014    0.0611 H         1 <0>         0.1606
     34 H10        -6.5550   -1.0732    0.0280 H         1 <0>         0.1592
     35 H11        -4.2609   -0.1887    0.0206 H         1 <0>         0.1576
@<TRIPOS>BOND
     1    1    2 1
     2    1   25 1
     3    1   26 1
     4    1   27 1
     5    2    6 2
     6    2    3 1
     7    3    4 2
     8    3   28 1
     9    4    5 1
    10    4   29 1
    11    5    6 1
    12    6    7 1
    13    7    8 2
    14    7   30 1
    15    8    9 1
    16    8   11 1
    17    9   10 3
    18   11   15 1
    19   11   12 2
    20   12   13 1
    21   13   14 2
    22   13   16 1
    23   14   15 1
    24   14   31 1
    25   16   21 ar
    26   16   17 ar
    27   17   18 ar
    28   17   32 1
    29   18   19 ar
    30   18   33 1
    31   19   20 ar
    32   19   22 1
    33   20   21 ar
    34   20   34 1
    35   21   35 1
    36   22   23 2
    37   22   24 1
@<TRIPOS>MOLECULE
ZINC16222491
   44    47     0     0     0
SMALL
USER_CHARGES
isopropyl 4-(dioxoBLAHyl)benzoate
@<TRIPOS>ATOM
      1 C1          2.4414    0.2450   -1.7756 C.3       1 <0>        -0.1715
      2 C2          2.3180    1.0375   -0.4726 C.3       1 <0>         0.0814
      3 C3          3.5110    1.9858   -0.3375 C.3       1 <0>        -0.1508
      4 O1          1.0871    1.8074   -0.4891 O.3       1 <0>        -0.3478
      5 C4         -0.0141    1.2113    0.0086 C.2       1 <0>         0.5113
      6 O2          0.0524    0.0792    0.4444 O.2       1 <0>        -0.5009
      7 C5         -1.3016    1.9311    0.0187 C.ar      1 <0>        -0.1142
      8 C6         -1.3788    3.2358   -0.4770 C.ar      1 <0>        -0.0499
      9 C7         -2.5833    3.9026   -0.4704 C.ar      1 <0>        -0.1077
     10 C8         -3.7202    3.2837    0.0390 C.ar      1 <0>         0.1522
     11 C9         -3.6461    1.9872    0.5375 C.ar      1 <0>        -0.1057
     12 C10        -2.4462    1.3122    0.5293 C.ar      1 <0>        -0.0429
     13 N1         -4.9391    3.9655    0.0494 N.am      1 <0>        -0.5245
     14 C11        -5.7514    3.8576   -1.0191 C.2       1 <0>         0.5711
     15 O3         -5.4153    3.1750   -1.9677 O.2       1 <0>        -0.4769
     16 C12        -7.0446    4.5562   -1.0429 C.ar      1 <0>        -0.1610
     17 C13        -7.9141    4.4690   -2.1203 C.ar      1 <0>        -0.0016
     18 C14        -9.1244    5.1520   -2.0977 C.ar      1 <0>        -0.1386
     19 C15        -9.4925    5.9204   -1.0307 C.ar      1 <0>        -0.0456
     20 C16        -8.6399    6.0357    0.0810 C.ar      1 <0>        -0.0763
     21 C17        -7.4090    5.3471    0.0705 C.ar      1 <0>         0.0096
     22 C18        -6.5297    5.4429    1.1732 C.ar      1 <0>        -0.1610
     23 C19        -6.8963    6.2215    2.2611 C.ar      1 <0>        -0.0016
     24 C20        -8.1121    6.8951    2.2594 C.ar      1 <0>        -0.1386
     25 C21        -8.9735    6.8141    1.2031 C.ar      1 <0>        -0.0456
     26 C22        -5.2558    4.7108    1.1253 C.2       1 <0>         0.5711
     27 O4         -4.4836    4.7789    2.0623 O.2       1 <0>        -0.4769
     28 H1          3.3654   -0.3330   -1.7632 H         1 <0>         0.0771
     29 H2          1.5915   -0.4306   -1.8718 H         1 <0>         0.0621
     30 H3          2.4552    0.9341   -2.6200 H         1 <0>         0.0675
     31 H4          2.3042    0.3484    0.3718 H         1 <0>         0.0872
     32 H5          3.4231    2.5504    0.5908 H         1 <0>         0.0656
     33 H6          4.4350    1.4078   -0.3251 H         1 <0>         0.0805
     34 H7          3.5248    2.6749   -1.1819 H         1 <0>         0.0689
     35 H8         -0.4956    3.7187   -0.8682 H         1 <0>         0.1488
     36 H9         -2.6446    4.9093   -0.8566 H         1 <0>         0.1357
     37 H10        -4.5309    1.5097    0.9319 H         1 <0>         0.1370
     38 H11        -2.3895    0.3056    0.9165 H         1 <0>         0.1483
     39 H12        -7.6498    3.8693   -2.9787 H         1 <0>         0.1475
     40 H13        -9.7897    5.0732   -2.9448 H         1 <0>         0.1418
     41 H14       -10.4391    6.4402   -1.0411 H         1 <0>         0.1430
     42 H15        -6.2354    6.3048    3.1112 H         1 <0>         0.1475
     43 H16        -8.3817    7.4976    3.1142 H         1 <0>         0.1418
     44 H17        -9.9116    7.3486    1.2296 H         1 <0>         0.1430
@<TRIPOS>BOND
     1    1    2 1
     2    1   28 1
     3    1   29 1
     4    1   30 1
     5    2    3 1
     6    2    4 1
     7    2   31 1
     8    3   32 1
     9    3   33 1
    10    3   34 1
    11    4    5 1
    12    5    6 2
    13    5    7 1
    14    7   12 ar
    15    7    8 ar
    16    8    9 ar
    17    8   35 1
    18    9   10 ar
    19    9   36 1
    20   10   11 ar
    21   10   13 1
    22   11   12 ar
    23   11   37 1
    24   12   38 1
    25   13   26 am
    26   13   14 am
    27   14   15 2
    28   14   16 1
    29   16   21 ar
    30   16   17 ar
    31   17   18 ar
    32   17   39 1
    33   18   19 ar
    34   18   40 1
    35   19   20 ar
    36   19   41 1
    37   20   25 ar
    38   20   21 ar
    39   21   22 ar
    40   22   23 ar
    41   22   26 1
    42   23   24 ar
    43   23   42 1
    44   24   25 ar
    45   24   43 1
    46   25   44 1
    47   26   27 2
@<TRIPOS>MOLECULE
ZINC38919857
   47    50     0     0     0
SMALL
USER_CHARGES

@<TRIPOS>ATOM
      1 C1         -0.0946    1.5098   -0.0631 C.3       1 <0>        -0.1233
      2 C2         -0.0641    0.0031   -0.0605 C.ar      1 <0>        -0.0560
      3 C3         -0.0472   -0.6879   -1.2589 C.ar      1 <0>        -0.1230
      4 C4         -0.0198   -2.0676   -1.2624 C.ar      1 <0>        -0.0648
      5 C5         -0.0086   -2.7647   -0.0559 C.ar      1 <0>        -0.0464
      6 C6         -0.0252   -2.0638    1.1479 C.ar      1 <0>        -0.0718
      7 C7         -0.0474   -0.6836    1.1398 C.ar      1 <0>        -0.0912
      8 C8         -0.0592    0.0761    2.4412 C.3       1 <0>        -0.1182
      9 C9          0.0205   -4.2487   -0.0533 C.2       1 <0>         0.3006
     10 N1          0.0435   -5.0348   -1.1445 N.2       1 <0>        -0.5220
     11 C10         0.0664   -6.2881   -0.7909 C.2       1 <0>         0.2888
     12 O1          0.0588   -6.3521    0.5468 O.3       1 <0>        -0.0944
     13 N2          0.0337   -5.0110    1.0121 N.2       1 <0>        -0.3271
     14 C11         0.0955   -7.4674   -1.7287 C.3       1 <0>        -0.0173
     15 H1          0.1076   -7.1370   -2.7674 H         1 <0>         0.1595
     16 C12         1.3023   -8.3855   -1.4260 C.3       1 <0>        -0.1452
     17 C13         0.7485   -9.4252   -0.4767 C.2       1 <0>         0.5212
     18 O2          1.4194  -10.1599    0.2170 O.2       1 <0>        -0.4920
     19 N3         -0.5951   -9.4159   -0.5137 N.am      1 <0>        -0.5585
     20 C14        -1.0960   -8.4142   -1.4636 C.3       1 <0>         0.1019
     21 C15        -1.4118  -10.2532    0.2543 C.ar      1 <0>         0.1901
     22 C16        -0.8444  -11.2466    1.0422 C.ar      1 <0>        -0.1592
     23 C17        -1.6520  -12.0718    1.7999 C.ar      1 <0>        -0.0619
     24 C18        -3.0251  -11.9111    1.7752 C.ar      1 <0>        -0.1408
     25 C19        -3.5949  -10.9219    0.9911 C.ar      1 <0>         0.1255
     26 C20        -2.7900  -10.0888    0.2346 C.ar      1 <0>        -0.1910
     27 F1         -4.9368  -10.7674    0.9686 F         1 <0>        -0.1333
     28 C21        -3.9031  -12.8141    2.6026 C.3       1 <0>        -0.1131
     29 H2          0.9255    1.8938   -0.0661 H         1 <0>         0.0771
     30 H3         -0.6177    1.8611   -0.9525 H         1 <0>         0.0716
     31 H4         -0.6136    1.8642    0.8275 H         1 <0>         0.0733
     32 H5         -0.0559   -0.1466   -2.1934 H         1 <0>         0.1339
     33 H6         -0.0073   -2.6061   -2.1984 H         1 <0>         0.1390
     34 H7         -0.0166   -2.5992    2.0858 H         1 <0>         0.1317
     35 H8         -1.0895    0.2389    2.7576 H         1 <0>         0.0744
     36 H9          0.4681   -0.4989    3.2024 H         1 <0>         0.0693
     37 H10         0.4352    1.0379    2.3049 H         1 <0>         0.0733
     38 H11         1.6619   -8.8570   -2.3406 H         1 <0>         0.1377
     39 H12         2.1017   -7.8195   -0.9477 H         1 <0>         0.1178
     40 H13        -1.9272   -7.8611   -1.0262 H         1 <0>         0.0962
     41 H14        -1.4085   -8.8957   -2.3902 H         1 <0>         0.1127
     42 H15         0.2278  -11.3739    1.0619 H         1 <0>         0.1620
     43 H16        -1.2104  -12.8441    2.4123 H         1 <0>         0.1393
     44 H17        -3.2336   -9.3147   -0.3739 H         1 <0>         0.1375
     45 H18        -4.0517  -12.3729    3.5882 H         1 <0>         0.0738
     46 H19        -4.8676  -12.9347    2.1093 H         1 <0>         0.0695
     47 H20        -3.4250  -13.7879    2.7089 H         1 <0>         0.0731
@<TRIPOS>BOND
     1    1    2 1
     2    1   29 1
     3    1   30 1
     4    1   31 1
     5    2    7 ar
     6    2    3 ar
     7    3    4 ar
     8    3   32 1
     9    4    5 ar
    10    4   33 1
    11    5    6 ar
    12    5    9 1
    13    6    7 ar
    14    6   34 1
    15    7    8 1
    16    8   35 1
    17    8   36 1
    18    8   37 1
    19    9   13 2
    20    9   10 1
    21   10   11 2
    22   11   12 1
    23   11   14 1
    24   12   13 1
    25   14   15 1
    26   14   20 1
    27   14   16 1
    28   16   17 1
    29   16   38 1
    30   16   39 1
    31   17   18 2
    32   17   19 am
    33   19   20 1
    34   19   21 1
    35   20   40 1
    36   20   41 1
    37   21   26 ar
    38   21   22 ar
    39   22   23 ar
    40   22   42 1
    41   23   24 ar
    42   23   43 1
    43   24   25 ar
    44   24   28 1
    45   25   26 ar
    46   25   27 1
    47   26   44 1
    48   28   45 1
    49   28   46 1
    50   28   47 1
@<TRIPOS>MOLECULE
ZINC48336345
   29    30     0     0     0
SMALL
USER_CHARGES

@<TRIPOS>ATOM
      1 C1         -0.0280    1.4326   -0.1684 C.3       1 <0>         0.0226
      2 O1         -0.0199    0.0123   -0.3253 O.3       1 <0>        -0.3050
      3 C2         -1.2175   -0.6255   -0.2361 C.ar      1 <0>         0.1055
      4 C3         -2.3759    0.1029   -0.0081 C.ar      1 <0>        -0.1162
      5 C4         -3.5923   -0.5447    0.0825 C.ar      1 <0>        -0.1566
      6 C5         -3.6557   -1.9240   -0.0545 C.ar      1 <0>         0.1559
      7 C6         -2.4974   -2.6521   -0.2825 C.ar      1 <0>        -0.0345
      8 C7         -1.2815   -2.0035   -0.3787 C.ar      1 <0>        -0.0596
      9 N1         -2.5649   -4.1236   -0.4287 N.pl3     1 <0>         0.0385
     10 O2         -1.5553   -4.7583   -0.6274 O.2       1 <0>        -0.1666
     11 O3         -3.6297   -4.6907   -0.3494 O.3       1 <0>        -0.1237
     12 O4         -4.8531   -2.5617    0.0351 O.3       1 <0>        -0.2195
     13 C8         -5.9738   -1.8017    0.1492 C.ar      1 <0>         0.0996
     14 C9         -6.4890   -1.5069    1.4034 C.ar      1 <0>        -0.1143
     15 C10        -7.6279   -0.7337    1.5167 C.ar      1 <0>        -0.0871
     16 C11        -8.2550   -0.2533    0.3817 C.ar      1 <0>        -0.1057
     17 C12        -7.7442   -0.5452   -0.8694 C.ar      1 <0>        -0.0736
     18 C13        -6.6018   -1.3140   -0.9883 C.ar      1 <0>        -0.1128
     19 I1         -5.8236   -1.7494   -2.8841 I         1 <0>        -0.0165
     20 H1          0.9887    1.8143   -0.2617 H         1 <0>         0.1095
     21 H2         -0.6560    1.8797   -0.9391 H         1 <0>         0.0602
     22 H3         -0.4230    1.6873    0.8150 H         1 <0>         0.0600
     23 H4         -2.3265    1.1765    0.0989 H         1 <0>         0.1522
     24 H5         -4.4941    0.0223    0.2603 H         1 <0>         0.1515
     25 H6         -0.3802   -2.5700   -0.5609 H         1 <0>         0.1704
     26 H7         -6.0000   -1.8820    2.2903 H         1 <0>         0.1428
     27 H8         -8.0294   -0.5044    2.4928 H         1 <0>         0.1418
     28 H9         -9.1457    0.3508    0.4727 H         1 <0>         0.1409
     29 H10        -8.2360   -0.1691   -1.7542 H         1 <0>         0.1401
@<TRIPOS>BOND
     1    1    2 1
     2    1   20 1
     3    1   21 1
     4    1   22 1
     5    2    3 1
     6    3    8 ar
     7    3    4 ar
     8    4    5 ar
     9    4   23 1
    10    5    6 ar
    11    5   24 1
    12    6    7 ar
    13    6   12 1
    14    7    8 ar
    15    7    9 1
    16    8   25 1
    17    9   10 2
    18    9   11 1
    19   12   13 1
    20   13   18 ar
    21   13   14 ar
    22   14   15 ar
    23   14   26 1
    24   15   16 ar
    25   15   27 1
    26   16   17 ar
    27   16   28 1
    28   17   18 ar
    29   17   29 1
    30   18   19 1
@<TRIPOS>MOLECULE
ZINC64031953
   44    47     0     0     0
SMALL
USER_CHARGES

@<TRIPOS>ATOM
      1 C1         -0.0184    1.5028    0.0103 C.3       1 <0>        -0.1184
      2 C2          0.0021   -0.0041    0.0020 C.ar      1 <0>        -0.0832
      3 C3          0.0057   -0.6873   -1.2005 C.ar      1 <0>        -0.0956
      4 C4          0.0244   -2.0679   -1.2120 C.ar      1 <0>        -0.1207
      5 C5          0.0396   -2.7710   -0.0132 C.ar      1 <0>         0.1323
      6 C6          0.0359   -2.0810    1.1933 C.ar      1 <0>        -0.1184
      7 C7          0.0229   -0.7003    1.1969 C.ar      1 <0>        -0.0959
      8 N1          0.0581   -4.1665   -0.0209 N.pl3     1 <0>        -0.4840
      9 C8          0.0696   -5.0534    1.1512 C.3       1 <0>         0.2309
     10 H1         -0.8257   -4.8909    1.7513 H         1 <0>         0.1881
     11 N2          0.0873   -6.4273    0.6367 N.2       1 <0>        -0.3141
     12 C9          0.0867   -6.3866   -0.6522 C.2       1 <0>         0.0279
     13 C10         0.0630   -4.9763   -1.1158 C.2       1 <0>         0.4383
     14 N3          0.0538   -4.7519   -2.4177 N.2       1 <0>        -0.5970
     15 C11         0.0625   -5.7420   -3.2956 C.2       1 <0>         0.4487
     16 N4          0.0806   -7.0157   -2.9887 N.2       1 <0>        -0.6120
     17 C12         0.1009   -7.4363   -1.7128 C.2       1 <0>         0.5639
     18 O1          0.1167   -8.6212   -1.4342 O.2       1 <0>        -0.4139
     19 S1          1.5516   -4.7436    2.1504 S.3       1 <0>        -0.1137
     20 C13         2.9252   -5.0986    1.0200 C.3       1 <0>        -0.0612
     21 C14         4.2336   -4.8774    1.7343 C.ar      1 <0>        -0.0877
     22 C15         4.8326   -3.6316    1.7098 C.ar      1 <0>        -0.0914
     23 C16         6.0326   -3.4288    2.3649 C.ar      1 <0>        -0.1253
     24 C17         6.6337   -4.4716    3.0451 C.ar      1 <0>        -0.1006
     25 C18         6.0344   -5.7168    3.0704 C.ar      1 <0>        -0.1204
     26 C19         4.8319   -5.9186    2.4186 C.ar      1 <0>        -0.0581
     27 C20         4.1758   -7.2749    2.4506 C.3       1 <0>        -0.1274
     28 H2          1.0042    1.8801    0.0026 H         1 <0>         0.0747
     29 H3         -0.5455    1.8639   -0.8728 H         1 <0>         0.0702
     30 H4         -0.5286    1.8543    0.9071 H         1 <0>         0.0696
     31 H5         -0.0065   -0.1403   -2.1317 H         1 <0>         0.1349
     32 H6          0.0268   -2.6008   -2.1514 H         1 <0>         0.1582
     33 H7          0.0474   -2.6241    2.1267 H         1 <0>         0.1336
     34 H8          0.0248   -0.1633    2.1340 H         1 <0>         0.1346
     35 H9          0.0537   -5.4807   -4.3435 H         1 <0>         0.2144
     36 H10         2.8634   -6.1347    0.6873 H         1 <0>         0.0984
     37 H11         2.8659   -4.4357    0.1568 H         1 <0>         0.0924
     38 H12         4.3630   -2.8170    1.1785 H         1 <0>         0.1239
     39 H13         6.5008   -2.4558    2.3452 H         1 <0>         0.1273
     40 H14         7.5717   -4.3133    3.5564 H         1 <0>         0.1273
     41 H15         6.5042   -6.5315    3.6014 H         1 <0>         0.1281
     42 H16         4.5275   -7.8686    1.6068 H         1 <0>         0.0744
     43 H17         4.4313   -7.7802    3.3820 H         1 <0>         0.0744
     44 H18         3.0942   -7.1569    2.3861 H         1 <0>         0.0728
@<TRIPOS>BOND
     1    1    2 1
     2    1   28 1
     3    1   29 1
     4    1   30 1
     5    2    7 ar
     6    2    3 ar
     7    3    4 ar
     8    3   31 1
     9    4    5 ar
    10    4   32 1
    11    5    6 ar
    12    5    8 1
    13    6    7 ar
    14    6   33 1
    15    7   34 1
    16    8   13 1
    17    8    9 1
    18    9   10 1
    19    9   11 1
    20    9   19 1
    21   11   12 2
    22   12   17 1
    23   12   13 1
    24   13   14 2
    25   14   15 1
    26   15   16 2
    27   15   35 1
    28   16   17 1
    29   17   18 2
    30   19   20 1
    31   20   21 1
    32   20   36 1
    33   20   37 1
    34   21   26 ar
    35   21   22 ar
    36   22   23 ar
    37   22   38 1
    38   23   24 ar
    39   23   39 1
    40   24   25 ar
    41   24   40 1
    42   25   26 ar
    43   25   41 1
    44   26   27 1
    45   27   42 1
    46   27   43 1
    47   27   44 1
@<TRIPOS>MOLECULE
ZINC07656786
   51    52     0     0     0
SMALL
USER_CHARGES
1-(cyclohexylcarbamoylcarbamoyl)ethyl 4-amino-5-chloro-2-methoxy-benzoate
@<TRIPOS>ATOM
      1 C1         -4.9486    0.0433   -1.2816 C.3       1 <0>        -0.1676
      2 C2         -4.8162    0.8209    0.0294 C.3       1 <0>         0.0774
      3 H1         -4.8227    0.1240    0.8674 H         1 <0>         0.1181
      4 C3         -3.5215    1.5920    0.0274 C.2       1 <0>         0.5203
      5 O1         -3.5379    2.8043    0.0341 O.2       1 <0>        -0.4389
      6 N1         -2.3452    0.9341    0.0182 N.am      1 <0>        -0.6880
      7 C4         -1.1873    1.6238    0.0165 C.2       1 <0>         0.6957
      8 O2         -1.2038    2.8390    0.0232 O.2       1 <0>        -0.5248
      9 N2         -0.0111    0.9658    0.0074 N.am      1 <0>        -0.7334
     10 C5          1.2475    1.7155   -0.0006 C.3       1 <0>         0.1603
     11 C6          1.6076    2.0922   -1.4391 C.3       1 <0>        -0.1309
     12 C7          2.9221    2.8752   -1.4475 C.3       1 <0>        -0.1180
     13 C8          4.0350    2.0097   -0.8531 C.3       1 <0>        -0.1229
     14 C9          3.6749    1.6330    0.5854 C.3       1 <0>        -0.1165
     15 C10         2.3605    0.8501    0.5937 C.3       1 <0>        -0.1258
     16 O3         -5.9293    1.7442    0.1590 O.3       1 <0>        -0.3290
     17 C11        -7.0348    1.2867    0.7801 C.2       1 <0>         0.5203
     18 O4         -7.0674    0.1472    1.2018 O.2       1 <0>        -0.4920
     19 C12        -8.2014    2.1664    0.9475 C.ar      1 <0>        -0.2159
     20 C13        -8.1666    3.4793    0.4627 C.ar      1 <0>         0.0372
     21 C14        -9.2502    4.2950    0.6177 C.ar      1 <0>        -0.1632
     22 C15       -10.3976    3.8280    1.2590 C.ar      1 <0>         0.3069
     23 C16       -10.4468    2.5281    1.7460 C.ar      1 <0>        -0.3010
     24 C17        -9.3563    1.6906    1.5889 C.ar      1 <0>         0.2493
     25 O5         -9.4010    0.4180    2.0568 O.3       1 <0>        -0.2783
     26 C18       -10.6093    0.0047    2.6980 C.3       1 <0>         0.0188
     27 N3        -11.4962    4.6672    1.4116 N.pl3     1 <0>        -0.8511
     28 Cl1        -9.2002    5.9215    0.0130 Cl        1 <0>        -0.0606
     29 H2         -4.1130   -0.6499   -1.3789 H         1 <0>         0.0814
     30 H3         -5.8851   -0.5145   -1.2802 H         1 <0>         0.0826
     31 H4         -4.9421    0.7402   -2.1197 H         1 <0>         0.0769
     32 H5         -2.3321   -0.0358    0.0129 H         1 <0>         0.4104
     33 H6          0.0021   -0.0041    0.0020 H         1 <0>         0.3981
     34 H7          1.1346    2.6215    0.5948 H         1 <0>         0.0915
     35 H8          1.7206    1.1862   -2.0346 H         1 <0>         0.0640
     36 H9          0.8148    2.7088   -1.8626 H         1 <0>         0.0687
     37 H10         2.8092    3.7812   -0.8521 H         1 <0>         0.0657
     38 H11         3.1787    3.1436   -2.4723 H         1 <0>         0.0661
     39 H12         4.9715    2.5675   -0.8591 H         1 <0>         0.0650
     40 H13         4.1480    1.1037   -1.4485 H         1 <0>         0.0629
     41 H14         3.5620    2.5390    1.1808 H         1 <0>         0.0665
     42 H15         4.4678    1.0164    1.0089 H         1 <0>         0.0688
     43 H16         2.1039    0.5817    1.6186 H         1 <0>         0.0699
     44 H17         2.4734   -0.0559   -0.0017 H         1 <0>         0.0692
     45 H18        -7.2814    3.8472   -0.0347 H         1 <0>         0.1573
     46 H19       -11.3366    2.1699    2.2423 H         1 <0>         0.1465
     47 H20       -10.7981    0.6413    3.5624 H         1 <0>         0.0602
     48 H21       -11.4397    0.0883    1.9969 H         1 <0>         0.0603
     49 H22       -10.5118   -1.0309    3.0239 H         1 <0>         0.1065
     50 H23       -11.4636    5.5754    1.0725 H         1 <0>         0.4082
     51 H24       -12.2949    4.3443    1.8573 H         1 <0>         0.4070
@<TRIPOS>BOND
     1    1    2 1
     2    1   29 1
     3    1   30 1
     4    1   31 1
     5    2    3 1
     6    2    4 1
     7    2   16 1
     8    4    5 2
     9    4    6 am
    10    6    7 am
    11    6   32 1
    12    7    8 2
    13    7    9 am
    14    9   10 1
    15    9   33 1
    16   10   15 1
    17   10   11 1
    18   10   34 1
    19   11   12 1
    20   11   35 1
    21   11   36 1
    22   12   13 1
    23   12   37 1
    24   12   38 1
    25   13   14 1
    26   13   39 1
    27   13   40 1
    28   14   15 1
    29   14   41 1
    30   14   42 1
    31   15   43 1
    32   15   44 1
    33   16   17 1
    34   17   18 2
    35   17   19 1
    36   19   24 ar
    37   19   20 ar
    38   20   21 ar
    39   20   45 1
    40   21   22 ar
    41   21   28 1
    42   22   23 ar
    43   22   27 1
    44   23   24 ar
    45   23   46 1
    46   24   25 1
    47   25   26 1
    48   26   47 1
    49   26   48 1
    50   26   49 1
    51   27   50 1
    52   27   51 1
@<TRIPOS>MOLECULE
ZINC21320117
   40    42     0     0     0
SMALL
USER_CHARGES
2-[(E)-[[4-amino-5-[(4-fluorophenyl)methylsulfanyl]-1,2,4-triazol-3-yl]hydrazono]methyl]-4-chloro-phenol
@<TRIPOS>ATOM
      1 C1          1.0570   -0.6837    0.5821 C.ar      1 <0>        -0.0666
      2 C2          1.0744   -2.0656    0.5793 C.ar      1 <0>        -0.1538
      3 C3          0.0400   -2.7693   -0.0140 C.ar      1 <0>         0.1103
      4 C4         -1.0133   -2.0874   -0.5993 C.ar      1 <0>        -0.1538
      5 C5         -1.0312   -0.7056   -0.5907 C.ar      1 <0>        -0.0666
      6 C6          0.0021   -0.0041    0.0020 C.ar      1 <0>        -0.0942
      7 C7         -0.0184    1.5028    0.0103 C.3       1 <0>        -0.0559
      8 S1         -0.8674    2.0878    1.5028 S.3       1 <0>        -0.0048
      9 C8         -0.8086    3.8435    1.3661 C.2       1 <0>         0.1853
     10 N1         -0.2625    4.5226    0.3858 N.2       1 <0>        -0.3032
     11 N2         -0.4308    5.8866    0.6578 N.2       1 <0>        -0.3078
     12 C9         -1.0739    5.9966    1.7949 C.2       1 <0>         0.4885
     13 N3         -1.3289    4.7362    2.2596 N.pl3     1 <0>        -0.2659
     14 N4         -1.9857    4.4245    3.4161 N.3       1 <0>        -0.7784
     15 N5         -1.4368    7.1833    2.4151 N.pl3     1 <0>        -0.5652
     16 N6         -1.1154    8.4108    1.8213 N.2       1 <0>        -0.1579
     17 C10        -1.4551    9.5218    2.4019 C.2       1 <0>         0.0851
     18 C11        -1.1170   10.8130    1.7772 C.ar      1 <0>        -0.0840
     19 C12        -1.4806   12.0101    2.3983 C.ar      1 <0>        -0.0418
     20 C13        -1.1608   13.2159    1.8078 C.ar      1 <0>        -0.0854
     21 C14        -0.4807   13.2434    0.6012 C.ar      1 <0>        -0.0523
     22 C15        -0.1155   12.0648   -0.0222 C.ar      1 <0>        -0.2102
     23 C16        -0.4240   10.8465    0.5595 C.ar      1 <0>         0.2009
     24 O1         -0.0603    9.6882   -0.0502 O.3       1 <0>        -0.4653
     25 Cl1        -1.6132   14.7036    2.5796 Cl        1 <0>        -0.0675
     26 F1          0.0584   -4.1201   -0.0214 F         1 <0>        -0.1361
     27 H1          1.8657   -0.1346    1.0412 H         1 <0>         0.1385
     28 H2          1.8965   -2.5964    1.0362 H         1 <0>         0.1403
     29 H3         -1.8209   -2.6353   -1.0621 H         1 <0>         0.1403
     30 H4         -1.8530   -0.1735   -1.0469 H         1 <0>         0.1385
     31 H5          1.0136    1.8836    0.0024 H         1 <0>         0.1109
     32 H6         -0.5505    1.8672   -0.8808 H         1 <0>         0.1108
     33 H7         -2.3659    5.2264    4.0660 H         1 <0>         0.4362
     34 H8         -2.1344    3.3716    3.6975 H         1 <0>         0.4478
     35 H9         -1.9769    7.1604    3.3731 H         1 <0>         0.4045
     36 H10        -1.9952    9.4990    3.3599 H         1 <0>         0.1241
     37 H11        -2.0112   11.9922    3.3388 H         1 <0>         0.1432
     38 H12        -0.2340   14.1909    0.1453 H         1 <0>         0.1371
     39 H13         0.4152   12.0943   -0.9624 H         1 <0>         0.1403
     40 H14         0.4836    9.7169   -1.0059 H         1 <0>         0.4341
@<TRIPOS>BOND
     1    1    6 ar
     2    1    2 ar
     3    1   27 1
     4    2    3 ar
     5    2   28 1
     6    3    4 ar
     7    3   26 1
     8    4    5 ar
     9    4   29 1
    10    5    6 ar
    11    5   30 1
    12    6    7 1
    13    7    8 1
    14    7   31 1
    15    7   32 1
    16    8    9 1
    17    9   13 1
    18    9   10 2
    19   10   11 1
    20   11   12 2
    21   12   13 1
    22   12   15 1
    23   13   14 1
    24   14   33 1
    25   14   34 1
    26   15   16 1
    27   15   35 1
    28   16   17 2
    29   17   18 1
    30   17   36 1
    31   18   23 ar
    32   18   19 ar
    33   19   20 ar
    34   19   37 1
    35   20   21 ar
    36   20   25 1
    37   21   22 ar
    38   21   38 1
    39   22   23 ar
    40   22   39 1
    41   23   24 1
    42   24   40 1
@<TRIPOS>MOLECULE
ZINC36586669
   60    61     0     0     0
SMALL
USER_CHARGES

@<TRIPOS>ATOM
      1 C1         -0.3939    0.0580    0.1279 C.3       1 <0>        -0.1658
      2 C2          0.1491   -1.3580    0.3308 C.3       1 <0>         0.1720
      3 C3          1.1999   -1.3467    1.4428 C.3       1 <0>        -0.1614
      4 C4         -0.9973   -2.2927    0.7219 C.3       1 <0>        -0.1556
      5 N1          0.7605   -1.8295   -0.9142 N.am      1 <0>        -0.7273
      6 C5          1.7972   -1.1573   -1.4526 C.2       1 <0>         0.5072
      7 O1          2.1659   -0.1134   -0.9574 O.2       1 <0>        -0.4970
      8 C6          2.4981   -1.7027   -2.6701 C.3       1 <0>         0.1747
      9 H1          2.7891   -2.7374   -2.4888 H         1 <0>         0.1227
     10 C7          1.5680   -1.6426   -3.8543 C.ar      1 <0>        -0.1259
     11 C8          0.4212   -0.8744   -3.7945 C.ar      1 <0>        -0.0557
     12 C9         -0.4327   -0.8193   -4.8803 C.ar      1 <0>        -0.1336
     13 C10        -0.1414   -1.5321   -6.0289 C.ar      1 <0>        -0.0929
     14 C11         1.0040   -2.3012   -6.0939 C.ar      1 <0>        -0.1549
     15 C12         1.8654   -2.3541   -5.0074 C.ar      1 <0>         0.1317
     16 O2          2.9959   -3.1056   -5.0709 O.3       1 <0>        -0.4865
     17 N2          3.6926   -0.9007   -2.9462 N.am      1 <0>        -0.5716
     18 C13         3.5674    0.3888   -3.3176 C.2       1 <0>         0.5941
     19 O3          2.4700    0.9127   -3.3354 O.2       1 <0>        -0.5041
     20 C14         4.7593    1.1633   -3.7018 C.ar      1 <0>        -0.1719
     21 C15         5.2169    1.1440   -5.0274 C.ar      1 <0>         0.1659
     22 C16         6.3392    1.8768   -5.3782 C.ar      1 <0>        -0.1636
     23 C17         7.0073    2.6251   -4.4269 C.ar      1 <0>        -0.0716
     24 C18         6.5650    2.6509   -3.1174 C.ar      1 <0>        -0.1609
     25 C19         5.4416    1.9301   -2.7461 C.ar      1 <0>         0.1571
     26 O4          5.0061    1.9619   -1.4617 O.3       1 <0>        -0.4865
     27 O5          4.5634    0.4101   -5.9627 O.3       1 <0>        -0.4852
     28 C20         5.0231   -1.5004   -2.8185 C.3       1 <0>         0.1724
     29 C21         4.8830   -3.0008   -2.5540 C.3       1 <0>        -0.1606
     30 C22         5.8074   -1.2819   -4.1139 C.3       1 <0>        -0.1748
     31 C23         5.7685   -0.8447   -1.6543 C.3       1 <0>        -0.1812
     32 H2          0.4228    0.7239   -0.1507 H         1 <0>         0.0833
     33 H3         -1.1426    0.0500   -0.6642 H         1 <0>         0.0522
     34 H4         -0.8489    0.4088    1.0543 H         1 <0>         0.0604
     35 H5          0.7450   -0.9959    2.3691 H         1 <0>         0.0634
     36 H6          1.5868   -2.3555    1.5873 H         1 <0>         0.0527
     37 H7          2.0167   -0.6808    1.1641 H         1 <0>         0.0740
     38 H8         -1.7460   -2.3007   -0.0702 H         1 <0>         0.0620
     39 H9         -0.6105   -3.3014    0.8665 H         1 <0>         0.0612
     40 H10        -1.4523   -1.9418    1.6482 H         1 <0>         0.0735
     41 H11         0.4193   -2.6256   -1.3510 H         1 <0>         0.3965
     42 H12         0.1914   -0.3168   -2.8985 H         1 <0>         0.1274
     43 H13        -1.3291   -0.2188   -4.8312 H         1 <0>         0.1238
     44 H14        -0.8103   -1.4877   -6.8757 H         1 <0>         0.1257
     45 H15         1.2311   -2.8578   -6.9912 H         1 <0>         0.1285
     46 H16         2.8619   -4.0372   -4.8488 H         1 <0>         0.3841
     47 H17         6.6935    1.8631   -6.3983 H         1 <0>         0.1376
     48 H18         7.8813    3.1935   -4.7089 H         1 <0>         0.1363
     49 H19         7.0948    3.2382   -2.3820 H         1 <0>         0.1373
     50 H20         5.3922    1.2773   -0.8984 H         1 <0>         0.3896
     51 H21         3.8614    0.8922   -6.4209 H         1 <0>         0.3938
     52 H22         4.4143   -3.4792   -3.4140 H         1 <0>         0.0782
     53 H23         5.8695   -3.4345   -2.3899 H         1 <0>         0.0738
     54 H24         4.2655   -3.1578   -1.6696 H         1 <0>         0.0579
     55 H25         6.2789   -0.2994   -4.0919 H         1 <0>         0.0657
     56 H26         6.5742   -2.0508   -4.2085 H         1 <0>         0.0601
     57 H27         5.1279   -1.3399   -4.9642 H         1 <0>         0.0921
     58 H28         5.1539   -0.8943   -0.7554 H         1 <0>         0.0666
     59 H29         6.7076   -1.3705   -1.4819 H         1 <0>         0.0738
     60 H30         5.9749    0.1979   -1.8961 H         1 <0>         0.0592
@<TRIPOS>BOND
     1    1    2 1
     2    1   32 1
     3    1   33 1
     4    1   34 1
     5    2    3 1
     6    2    4 1
     7    2    5 1
     8    3   35 1
     9    3   36 1
    10    3   37 1
    11    4   38 1
    12    4   39 1
    13    4   40 1
    14    5    6 am
    15    5   41 1
    16    6    7 2
    17    6    8 1
    18    8    9 1
    19    8   10 1
    20    8   17 1
    21   10   15 ar
    22   10   11 ar
    23   11   12 ar
    24   11   42 1
    25   12   13 ar
    26   12   43 1
    27   13   14 ar
    28   13   44 1
    29   14   15 ar
    30   14   45 1
    31   15   16 1
    32   16   46 1
    33   17   18 am
    34   17   28 1
    35   18   19 2
    36   18   20 1
    37   20   25 ar
    38   20   21 ar
    39   21   22 ar
    40   21   27 1
    41   22   23 ar
    42   22   47 1
    43   23   24 ar
    44   23   48 1
    45   24   25 ar
    46   24   49 1
    47   25   26 1
    48   26   50 1
    49   27   51 1
    50   28   29 1
    51   28   30 1
    52   28   31 1
    53   29   52 1
    54   29   53 1
    55   29   54 1
    56   30   55 1
    57   30   56 1
    58   30   57 1
    59   31   58 1
    60   31   59 1
    61   31   60 1
@<TRIPOS>MOLECULE
ZINC43553838
   74    76     0     0     0
SMALL
USER_CHARGES

@<TRIPOS>ATOM
      1 C1         -0.0560    2.1055   -1.8937 C.3       1 <0>        -0.1619
      2 C2          0.0671    0.5806   -1.8782 C.3       1 <0>         0.1540
      3 C3          1.1262    0.1648   -0.8553 C.3       1 <0>        -0.1667
      4 N1         -1.2230   -0.0098   -1.5129 N.am      1 <0>        -0.7084
      5 C4         -1.5246   -1.2641   -1.9029 C.2       1 <0>         0.6481
      6 O1         -0.7266   -1.9053   -2.5575 O.2       1 <0>        -0.5671
      7 O2         -2.7102   -1.8067   -1.5672 O.3       1 <0>        -0.3577
      8 C5         -2.9638   -3.1429   -2.0151 C.3       1 <0>         0.1269
      9 H1         -2.0043   -3.6708   -2.0799 H         1 <0>         0.0920
     10 C6         -3.6009   -3.1045   -3.3985 C.3       1 <0>        -0.1400
     11 C7         -4.9657   -2.4174   -3.3183 C.3       1 <0>        -0.1078
     12 C8         -5.8919   -3.2312   -2.4121 C.3       1 <0>        -0.0318
     13 C9         -5.2823   -3.3730   -1.0283 C.3       1 <0>        -0.0600
     14 H2         -5.2685   -2.3563   -0.5677 H         1 <0>         0.0693
     15 C10        -3.8465   -3.8579   -0.9936 C.3       1 <0>        -0.0333
     16 C11        -3.7301   -5.3711   -1.1745 C.3       1 <0>        -0.1457
     17 C12        -3.2638   -3.5215    0.4014 C.3       1 <0>         0.0784
     18 O3         -1.9143   -3.9852    0.4784 O.3       1 <0>        -0.5677
     19 C13        -6.1949   -4.2173   -0.1377 C.3       1 <0>        -0.1143
     20 C14        -7.5363   -3.4888    0.0087 C.3       1 <0>        -0.1524
     21 C15        -8.1818   -3.2931   -1.3598 C.3       1 <0>         0.1133
     22 H3         -8.4440   -4.2661   -1.7808 H         1 <0>         0.0535
     23 C16        -7.2577   -2.5419   -2.3149 C.3       1 <0>        -0.0551
     24 H4         -7.7134   -2.5588   -3.3172 H         1 <0>         0.0866
     25 C17        -7.1260   -1.0866   -1.8761 C.3       1 <0>        -0.1249
     26 C18        -8.4229   -0.3643   -2.1360 C.2       1 <0>         0.5403
     27 O4         -9.3057   -0.9100   -2.7634 O.2       1 <0>        -0.5104
     28 N2         -8.6016    0.8880   -1.6712 N.am      1 <0>        -0.6152
     29 C19        -7.6144    1.6685   -0.9032 C.3       1 <0>         0.1051
     30 C20        -8.4552    2.6970   -0.1063 C.3       1 <0>        -0.1324
     31 C21        -9.5699    3.0461   -1.1275 C.3       1 <0>        -0.1275
     32 C22        -9.8109    1.7045   -1.8515 C.3       1 <0>         0.1434
     33 H5        -10.6696    1.1972   -1.4118 H         1 <0>         0.0840
     34 C23       -10.0551    1.9508   -3.3416 C.3       1 <0>         0.0623
     35 O5         -8.9893    2.7391   -3.8751 O.3       1 <0>        -0.5684
     36 O6         -9.3927   -2.5398   -1.1986 O.3       1 <0>        -0.5435
     37 C24        -6.1280   -4.5979   -3.0735 C.3       1 <0>        -0.1545
     38 H6          0.9038    2.5448   -2.1655 H         1 <0>         0.0776
     39 H7         -0.8105    2.4017   -2.6225 H         1 <0>         0.0638
     40 H8         -0.3490    2.4565   -0.9043 H         1 <0>         0.0630
     41 H9          0.3601    0.2296   -2.8677 H         1 <0>         0.0908
     42 H10         1.2139   -0.9216   -0.8442 H         1 <0>         0.0623
     43 H11         2.0860    0.6041   -1.1271 H         1 <0>         0.0690
     44 H12         0.8332    0.5158    0.1342 H         1 <0>         0.0575
     45 H13        -1.8600    0.5021   -0.9903 H         1 <0>         0.4035
     46 H14        -2.9573   -2.5156   -4.0668 H         1 <0>         0.0676
     47 H15        -3.6869   -4.1026   -3.8124 H         1 <0>         0.0852
     48 H16        -4.8229   -1.4138   -2.9217 H         1 <0>         0.0704
     49 H17        -5.3984   -2.3561   -4.3176 H         1 <0>         0.0673
     50 H18        -2.7179   -5.6900   -0.9257 H         1 <0>         0.0701
     51 H19        -4.4407   -5.8714   -0.5165 H         1 <0>         0.0649
     52 H20        -3.9488   -5.6312   -2.2102 H         1 <0>         0.0623
     53 H21        -3.2865   -2.4424    0.5540 H         1 <0>         0.0520
     54 H22        -3.8604   -4.0100    1.1718 H         1 <0>         0.0463
     55 H23        -1.4853   -3.8079    1.3267 H         1 <0>         0.3784
     56 H24        -6.3653   -5.2024   -0.5572 H         1 <0>         0.0725
     57 H25        -5.7541   -4.3252    0.8555 H         1 <0>         0.0646
     58 H26        -8.1975   -4.0912    0.6376 H         1 <0>         0.0625
     59 H27        -7.3740   -2.5266    0.4917 H         1 <0>         0.0672
     60 H28        -6.8954   -1.0476   -0.8115 H         1 <0>         0.0847
     61 H29        -6.3246   -0.6084   -2.4393 H         1 <0>         0.0916
     62 H30        -7.0643    1.0192   -0.2222 H         1 <0>         0.0703
     63 H31        -6.9282    2.1807   -1.5777 H         1 <0>         0.0681
     64 H32        -8.8758    2.2454    0.7921 H         1 <0>         0.0735
     65 H33        -7.8627    3.5776    0.1416 H         1 <0>         0.0826
     66 H34       -10.4727    3.3777   -0.6146 H         1 <0>         0.0775
     67 H35        -9.2247    3.8034   -1.8314 H         1 <0>         0.0881
     68 H36       -10.0980    0.9958   -3.8654 H         1 <0>         0.0614
     69 H37       -10.9991    2.4798   -3.4726 H         1 <0>         0.0499
     70 H38        -9.0784    2.9346   -4.8179 H         1 <0>         0.3774
     71 H39       -10.0468   -2.9642   -0.6268 H         1 <0>         0.3631
     72 H40        -5.1684   -5.0640   -3.2970 H         1 <0>         0.0647
     73 H41        -6.6931   -5.2371   -2.3951 H         1 <0>         0.0596
     74 H42        -6.6900   -4.4622   -3.9975 H         1 <0>         0.0580
@<TRIPOS>BOND
     1    1    2 1
     2    1   38 1
     3    1   39 1
     4    1   40 1
     5    2    3 1
     6    2    4 1
     7    2   41 1
     8    3   42 1
     9    3   43 1
    10    3   44 1
    11    4    5 am
    12    4   45 1
    13    5    6 2
    14    5    7 1
    15    7    8 1
    16    8    9 1
    17    8   15 1
    18    8   10 1
    19   10   11 1
    20   10   46 1
    21   10   47 1
    22   11   12 1
    23   11   48 1
    24   11   49 1
    25   12   23 1
    26   12   13 1
    27   12   37 1
    28   13   14 1
    29   13   15 1
    30   13   19 1
    31   15   16 1
    32   15   17 1
    33   16   50 1
    34   16   51 1
    35   16   52 1
    36   17   18 1
    37   17   53 1
    38   17   54 1
    39   18   55 1
    40   19   20 1
    41   19   56 1
    42   19   57 1
    43   20   21 1
    44   20   58 1
    45   20   59 1
    46   21   22 1
    47   21   23 1
    48   21   36 1
    49   23   24 1
    50   23   25 1
    51   25   26 1
    52   25   60 1
    53   25   61 1
    54   26   27 2
    55   26   28 am
    56   28   32 1
    57   28   29 1
    58   29   30 1
    59   29   62 1
    60   29   63 1
    61   30   31 1
    62   30   64 1
    63   30   65 1
    64   31   32 1
    65   31   66 1
    66   31   67 1
    67   32   33 1
    68   32   34 1
    69   34   35 1
    70   34   68 1
    71   34   69 1
    72   35   70 1
    73   36   71 1
    74   37   72 1
    75   37   73 1
    76   37   74 1
@<TRIPOS>MOLECULE
ZINC28631638
   54    55     0     0     0
SMALL
USER_CHARGES

@<TRIPOS>ATOM
      1 C1          0.8191   -0.8040    1.1056 C.3       1 <0>        -0.1403
      2 C2          0.1267   -0.4785   -0.2193 C.3       1 <0>        -0.1008
      3 C3          0.6227   -1.4378   -1.3032 C.3       1 <0>        -0.1529
      4 C4         -1.3867   -0.6330   -0.0552 C.3       1 <0>         0.1460
      5 C5         -2.0743   -0.2309   -1.3346 C.2       1 <0>         0.5215
      6 O1         -2.5109   -1.0810   -2.0813 O.2       1 <0>        -0.5113
      7 N1         -2.2040    1.0732   -1.6488 N.am      1 <0>        -0.5441
      8 N2         -2.7435    1.4451   -2.8872 N.pl3     1 <0>        -0.4715
      9 C6         -2.8732    2.7493   -3.2014 C.2       1 <0>         0.5611
     10 S1         -3.5324    3.2037   -4.7147 S.2       1 <0>        -0.5822
     11 N3         -2.4839    3.6957   -2.3244 N.pl3     1 <0>        -0.6798
     12 C7         -2.6249    5.1133   -2.6660 C.3       1 <0>         0.1426
     13 C8         -1.4064    5.5673   -3.4722 C.3       1 <0>        -0.1286
     14 C9         -1.5537    7.0479   -3.8289 C.3       1 <0>        -0.1153
     15 C10        -1.6526    7.8744   -2.5452 C.3       1 <0>        -0.1243
     16 C11        -2.8712    7.4204   -1.7390 C.3       1 <0>        -0.1146
     17 C12        -2.7239    5.9399   -1.3823 C.3       1 <0>        -0.1283
     18 N4         -1.7045   -2.0297    0.2519 N.am      1 <0>        -0.7094
     19 C13        -1.6518   -2.4685    1.5252 C.2       1 <0>         0.5698
     20 O2         -1.3405   -1.7053    2.4187 O.2       1 <0>        -0.5232
     21 C14        -1.9724   -3.8769    1.8349 C.ar      1 <0>        -0.1519
     22 C15        -2.3247   -4.7572    0.8096 C.ar      1 <0>        -0.0543
     23 C16        -2.6229   -6.0703    1.1042 C.ar      1 <0>        -0.1603
     24 C17        -2.5739   -6.5175    2.4157 C.ar      1 <0>         0.1310
     25 C18        -2.2246   -5.6477    3.4375 C.ar      1 <0>        -0.1616
     26 C19        -1.9186   -4.3342    3.1533 C.ar      1 <0>        -0.0261
     27 F1         -2.8679   -7.8053    2.6991 F         1 <0>        -0.1309
     28 H1          1.8828   -0.5799    1.0243 H         1 <0>         0.0576
     29 H2          0.3809   -0.2025    1.9020 H         1 <0>         0.0701
     30 H3          0.6871   -1.8615    1.3344 H         1 <0>         0.0580
     31 H4          0.3581    0.5468   -0.5080 H         1 <0>         0.0840
     32 H5          0.3913   -2.4631   -1.0145 H         1 <0>         0.0621
     33 H6          0.1293   -1.2059   -2.2471 H         1 <0>         0.0551
     34 H7          1.7008   -1.3277   -1.4200 H         1 <0>         0.0653
     35 H8         -1.7309    0.0054    0.7584 H         1 <0>         0.1208
     36 H9         -1.9238    1.7544   -1.0176 H         1 <0>         0.4223
     37 H10        -3.0236    0.7639   -3.5184 H         1 <0>         0.4591
     38 H11        -2.1104    3.4383   -1.4670 H         1 <0>         0.3899
     39 H12        -3.5275    5.2558   -3.2603 H         1 <0>         0.1198
     40 H13        -0.5039    5.4249   -2.8778 H         1 <0>         0.0599
     41 H14        -1.3359    4.9785   -4.3867 H         1 <0>         0.0816
     42 H15        -0.6855    7.3713   -4.4033 H         1 <0>         0.0679
     43 H16        -2.4562    7.1903   -4.4233 H         1 <0>         0.0703
     44 H17        -0.7501    7.7319   -1.9508 H         1 <0>         0.0620
     45 H18        -1.7576    8.9291   -2.7993 H         1 <0>         0.0669
     46 H19        -2.9417    8.0092   -0.8245 H         1 <0>         0.0701
     47 H20        -3.7737    7.5629   -2.3334 H         1 <0>         0.0698
     48 H21        -3.5920    5.6164   -0.8079 H         1 <0>         0.0703
     49 H22        -1.8214    5.7974   -0.7879 H         1 <0>         0.0676
     50 H23        -1.9529   -2.6387   -0.4611 H         1 <0>         0.4121
     51 H24        -2.3638   -4.4096   -0.2122 H         1 <0>         0.1373
     52 H25        -2.8955   -6.7519    0.3121 H         1 <0>         0.1451
     53 H26        -2.1884   -6.0012    4.4574 H         1 <0>         0.1460
     54 H27        -1.6420   -3.6587    3.9493 H         1 <0>         0.1489
@<TRIPOS>BOND
     1    1    2 1
     2    1   28 1
     3    1   29 1
     4    1   30 1
     5    2    3 1
     6    2    4 1
     7    2   31 1
     8    3   32 1
     9    3   33 1
    10    3   34 1
    11    4    5 1
    12    4   18 1
    13    4   35 1
    14    5    6 2
    15    5    7 am
    16    7    8 1
    17    7   36 1
    18    8    9 1
    19    8   37 1
    20    9   10 2
    21    9   11 1
    22   11   12 1
    23   11   38 1
    24   12   17 1
    25   12   13 1
    26   12   39 1
    27   13   14 1
    28   13   40 1
    29   13   41 1
    30   14   15 1
    31   14   42 1
    32   14   43 1
    33   15   16 1
    34   15   44 1
    35   15   45 1
    36   16   17 1
    37   16   46 1
    38   16   47 1
    39   17   48 1
    40   17   49 1
    41   18   19 am
    42   18   50 1
    43   19   20 2
    44   19   21 1
    45   21   26 ar
    46   21   22 ar
    47   22   23 ar
    48   22   51 1
    49   23   24 ar
    50   23   52 1
    51   24   25 ar
    52   24   27 1
    53   25   26 ar
    54   25   53 1
    55   26   54 1
@<TRIPOS>MOLECULE
ZINC08709362
   54    57     0     0     0
SMALL
USER_CHARGES
6-chloro-2-[(4,6-diamino-1,3,5-triazin-2-yl)methylsulfanyl]-3-(4-sec-butylphenyl)-quinazolin-4-one
@<TRIPOS>ATOM
      1 C1         -1.2602    2.4393   -1.0750 C.3       1 <0>        -0.1553
      2 C2         -1.8358    3.0511    0.2038 C.3       1 <0>        -0.1164
      3 C3         -0.7467    3.1081    1.2769 C.3       1 <0>        -0.0564
      4 H1         -0.3272    2.1126    1.4220 H         1 <0>         0.0820
      5 C4          0.3588    4.0674    0.8312 C.3       1 <0>        -0.1477
      6 C5         -1.3428    3.5957    2.5723 C.ar      1 <0>        -0.0512
      7 C6         -1.9323    4.8450    2.6334 C.ar      1 <0>        -0.1052
      8 C7         -2.4846    5.2924    3.8177 C.ar      1 <0>        -0.0826
      9 C8         -2.4369    4.4911    4.9506 C.ar      1 <0>         0.0818
     10 C9         -1.8392    3.2394    4.8875 C.ar      1 <0>        -0.0821
     11 C10        -1.2941    2.7951    3.6987 C.ar      1 <0>        -0.1080
     12 N1         -2.9902    4.9447    6.1550 N.am      1 <0>        -0.4835
     13 C11        -2.2243    5.6431    7.0249 C.2       1 <0>         0.5585
     14 O1         -1.0566    5.8872    6.7821 O.2       1 <0>        -0.4855
     15 C12        -2.8530    6.0955    8.2728 C.ar      1 <0>        -0.1899
     16 C13        -2.1469    6.8218    9.2313 C.ar      1 <0>        -0.0257
     17 C14        -2.7874    7.2214   10.3846 C.ar      1 <0>        -0.0593
     18 C15        -4.1247    6.9060   10.5961 C.ar      1 <0>        -0.0590
     19 C16        -4.8342    6.1956    9.6699 C.ar      1 <0>        -0.0981
     20 C17        -4.2128    5.7765    8.4900 C.ar      1 <0>         0.1755
     21 N2         -4.8830    5.0712    7.5484 N.2       1 <0>        -0.5284
     22 C18        -4.3020    4.6832    6.4402 C.2       1 <0>         0.3765
     23 S1         -5.2524    3.7757    5.2664 S.3       1 <0>         0.0630
     24 C19        -6.8454    3.7241    6.1242 C.3       1 <0>        -0.0489
     25 C20        -7.8452    2.9739    5.2825 C.ar      1 <0>         0.4405
     26 N3         -8.5922    3.6259    4.4089 N.ar      1 <0>        -0.6232
     27 C21        -9.4732    2.9660    3.6603 C.ar      1 <0>         0.6351
     28 N4         -9.6079    1.6516    3.7995 N.ar      1 <0>        -0.6514
     29 C22        -8.8587    1.0004    4.6824 C.ar      1 <0>         0.6352
     30 N5         -7.9764    1.6665    5.4238 N.ar      1 <0>        -0.6232
     31 N6         -8.9953   -0.3647    4.8310 N.pl3     1 <0>        -0.8023
     32 N7        -10.2491    3.6469    2.7446 N.pl3     1 <0>        -0.8022
     33 Cl1        -1.9165    8.1259   11.5835 Cl        1 <0>        -0.0557
     34 H2         -2.0361    2.3987   -1.8394 H         1 <0>         0.0553
     35 H3         -0.9027    1.4310   -0.8663 H         1 <0>         0.0547
     36 H4         -0.4319    3.0523   -1.4302 H         1 <0>         0.0583
     37 H5         -2.1934    4.0594   -0.0048 H         1 <0>         0.0650
     38 H6         -2.6641    2.4381    0.5590 H         1 <0>         0.0639
     39 H7          0.7899    3.7147   -0.1057 H         1 <0>         0.0639
     40 H8         -0.0608    5.0629    0.6861 H         1 <0>         0.0579
     41 H9          1.1346    4.1080    1.5957 H         1 <0>         0.0574
     42 H10        -1.9646    5.4699    1.7531 H         1 <0>         0.1333
     43 H11        -2.9488    6.2665    3.8636 H         1 <0>         0.1284
     44 H12        -1.8002    2.6140    5.7671 H         1 <0>         0.1287
     45 H13        -0.8291    1.8216    3.6490 H         1 <0>         0.1338
     46 H14        -1.1078    7.0691    9.0714 H         1 <0>         0.1495
     47 H15        -4.6098    7.2276   11.5058 H         1 <0>         0.1466
     48 H16        -5.8726    5.9586    9.8486 H         1 <0>         0.1511
     49 H17        -6.7258    3.2191    7.0827 H         1 <0>         0.1335
     50 H18        -7.2012    4.7408    6.2912 H         1 <0>         0.1334
     51 H19        -8.4482   -0.8395    5.4761 H         1 <0>         0.4204
     52 H20        -9.6385   -0.8495    4.2904 H         1 <0>         0.4187
     53 H21       -10.8934    3.1660    2.2020 H         1 <0>         0.4187
     54 H22       -10.1501    4.6066    2.6435 H         1 <0>         0.4204
@<TRIPOS>BOND
     1    1    2 1
     2    1   34 1
     3    1   35 1
     4    1   36 1
     5    2    3 1
     6    2   37 1
     7    2   38 1
     8    3    4 1
     9    3    5 1
    10    3    6 1
    11    5   39 1
    12    5   40 1
    13    5   41 1
    14    6   11 ar
    15    6    7 ar
    16    7    8 ar
    17    7   42 1
    18    8    9 ar
    19    8   43 1
    20    9   10 ar
    21    9   12 1
    22   10   11 ar
    23   10   44 1
    24   11   45 1
    25   12   22 1
    26   12   13 am
    27   13   14 2
    28   13   15 1
    29   15   20 ar
    30   15   16 ar
    31   16   17 ar
    32   16   46 1
    33   17   18 ar
    34   17   33 1
    35   18   19 ar
    36   18   47 1
    37   19   20 ar
    38   19   48 1
    39   20   21 1
    40   21   22 2
    41   22   23 1
    42   23   24 1
    43   24   25 1
    44   24   49 1
    45   24   50 1
    46   25   30 ar
    47   25   26 ar
    48   26   27 ar
    49   27   28 ar
    50   27   32 1
    51   28   29 ar
    52   29   30 ar
    53   29   31 1
    54   31   51 1
    55   31   52 1
    56   32   53 1
    57   32   54 1
@<TRIPOS>MOLECULE
ZINC14006022
   57    60     0     0     0
SMALL
USER_CHARGES
N-(4-anilinophenyl)-2-[[(E)-3-(2-furyl)prop-2-enoyl]carbamothioylamino]benzamide
@<TRIPOS>ATOM
      1 C1         -1.3590    3.2405   -0.9536 C.ar      1 <0>        -0.1594
      2 C2         -1.2759    2.0083   -1.5758 C.ar      1 <0>        -0.0821
      3 C3         -0.0600    1.3602   -1.6682 C.ar      1 <0>        -0.1741
      4 C4          1.0827    1.9528   -1.1453 C.ar      1 <0>         0.1867
      5 C5          0.9966    3.1935   -0.5260 C.ar      1 <0>        -0.1740
      6 C6         -0.2236    3.8333   -0.4321 C.ar      1 <0>        -0.0827
      7 N1          2.3154    1.3029   -1.2425 N.pl3     1 <0>        -0.6857
      8 C7          3.5027    2.0371   -1.1481 C.ar      1 <0>         0.1676
      9 C8          3.5562    3.3368   -1.6355 C.ar      1 <0>        -0.1422
     10 C9          4.7262    4.0629   -1.5376 C.ar      1 <0>        -0.0842
     11 C10         5.8529    3.4902   -0.9618 C.ar      1 <0>         0.1099
     12 C11         5.8011    2.1888   -0.4798 C.ar      1 <0>        -0.1073
     13 C12         4.6296    1.4644   -0.5723 C.ar      1 <0>        -0.1436
     14 N2          7.0412    4.2253   -0.8670 N.am      1 <0>        -0.6622
     15 C13         6.9963    5.5510   -0.6281 C.2       1 <0>         0.5670
     16 O1          5.9242    6.1218   -0.5665 O.2       1 <0>        -0.5303
     17 C14         8.2472    6.3093   -0.4413 C.ar      1 <0>        -0.1494
     18 C15         9.4823    5.6886   -0.6440 C.ar      1 <0>        -0.0816
     19 C16        10.6474    6.4040   -0.4726 C.ar      1 <0>        -0.1176
     20 C17        10.6016    7.7351   -0.0899 C.ar      1 <0>        -0.0785
     21 C18         9.3892    8.3606    0.1191 C.ar      1 <0>        -0.0824
     22 C19         8.2044    7.6570   -0.0535 C.ar      1 <0>         0.1922
     23 N3          6.9805    8.2856    0.1577 N.pl3     1 <0>        -0.6094
     24 C20         6.7766    9.5358   -0.3027 C.2       1 <0>         0.5177
     25 S1          7.9679   10.2973   -1.2680 S.2       1 <0>        -0.4945
     26 N4          5.6349   10.1864   -0.0033 N.am      1 <0>        -0.6367
     27 C21         5.4311   11.4365   -0.4638 C.2       1 <0>         0.5288
     28 O2          6.2784   11.9782   -1.1503 O.2       1 <0>        -0.4136
     29 C22         4.2333   12.1191   -0.1497 C.2       1 <0>        -0.2275
     30 C23         4.0281   13.3780   -0.6133 C.2       1 <0>         0.0396
     31 C24         2.8290   14.0613   -0.2989 C.2       1 <0>        -0.0265
     32 C25         2.4931   15.3393   -0.6965 C.2       1 <0>        -0.1462
     33 C26         1.2230   15.6027   -0.1618 C.2       1 <0>        -0.2204
     34 C27         0.8460   14.5058    0.5323 C.2       1 <0>        -0.0085
     35 O3          1.8127   13.5815    0.4482 O.3       1 <0>        -0.1657
     36 H1         -2.3120    3.7431   -0.8788 H         1 <0>         0.1213
     37 H2         -2.1637    1.5504   -1.9863 H         1 <0>         0.1243
     38 H3          0.0034    0.3958   -2.1502 H         1 <0>         0.1227
     39 H4          1.8829    3.6571   -0.1188 H         1 <0>         0.1269
     40 H5         -0.2913    4.7976    0.0496 H         1 <0>         0.1230
     41 H6          2.3482    0.3426   -1.3754 H         1 <0>         0.4101
     42 H7          2.6813    3.7808   -2.0869 H         1 <0>         0.1308
     43 H8          4.7666    5.0750   -1.9124 H         1 <0>         0.1402
     44 H9          6.6773    1.7436   -0.0321 H         1 <0>         0.1298
     45 H10         4.5892    0.4526   -0.1968 H         1 <0>         0.1295
     46 H11         7.8966    3.7804   -0.9733 H         1 <0>         0.4116
     47 H12         9.5238    4.6502   -0.9380 H         1 <0>         0.1306
     48 H13        11.6013    5.9237   -0.6330 H         1 <0>         0.1349
     49 H14        11.5203    8.2864    0.0459 H         1 <0>         0.1370
     50 H15         9.3619    9.3981    0.4176 H         1 <0>         0.1485
     51 H16         6.2743    7.8239    0.6363 H         1 <0>         0.4172
     52 H17         4.9599    9.7549    0.5436 H         1 <0>         0.4131
     53 H18         3.4818   11.6387    0.4593 H         1 <0>         0.1336
     54 H19         4.7796   13.8584   -1.2223 H         1 <0>         0.1651
     55 H20         3.0898   16.0052   -1.3021 H         1 <0>         0.1602
     56 H21         0.6545   16.5133   -0.2795 H         1 <0>         0.1569
     57 H22        -0.0848   14.3924    1.0682 H         1 <0>         0.2096
@<TRIPOS>BOND
     1    1    6 ar
     2    1    2 ar
     3    1   36 1
     4    2    3 ar
     5    2   37 1
     6    3    4 ar
     7    3   38 1
     8    4    5 ar
     9    4    7 1
    10    5    6 ar
    11    5   39 1
    12    6   40 1
    13    7    8 1
    14    7   41 1
    15    8   13 ar
    16    8    9 ar
    17    9   10 ar
    18    9   42 1
    19   10   11 ar
    20   10   43 1
    21   11   12 ar
    22   11   14 1
    23   12   13 ar
    24   12   44 1
    25   13   45 1
    26   14   15 am
    27   14   46 1
    28   15   16 2
    29   15   17 1
    30   17   22 ar
    31   17   18 ar
    32   18   19 ar
    33   18   47 1
    34   19   20 ar
    35   19   48 1
    36   20   21 ar
    37   20   49 1
    38   21   22 ar
    39   21   50 1
    40   22   23 1
    41   23   24 1
    42   23   51 1
    43   24   25 2
    44   24   26 1
    45   26   27 am
    46   26   52 1
    47   27   28 2
    48   27   29 1
    49   29   30 2
    50   29   53 1
    51   30   31 1
    52   30   54 1
    53   31   35 1
    54   31   32 2
    55   32   33 1
    56   32   55 1
    57   33   34 2
    58   33   56 1
    59   34   35 1
    60   34   57 1
@<TRIPOS>MOLECULE
ZINC24835322
   49    52     0     0     0
SMALL
USER_CHARGES
ethyl (6S)-4-[(4-aminothieno[3,2-e]pyrimidin-2-yl)sulfanylmethyl]-6-(4-chlorophenyl)-2-oxo-3,6-dihydro-1H-pyrimidine-5-carboxylate
@<TRIPOS>ATOM
      1 C1          0.5244    7.5835    4.6997 C.3       1 <0>        -0.1533
      2 C2          1.9648    7.6860    4.1941 C.3       1 <0>         0.0575
      3 O1          1.9891    8.4258    2.9718 O.3       1 <0>        -0.3356
      4 C3          3.1929    8.6083    2.3900 C.2       1 <0>         0.5423
      5 O2          4.1945    8.1510    2.9078 O.2       1 <0>        -0.4896
      6 C4          3.2903    9.3314    1.1781 C.2       1 <0>        -0.2418
      7 C5          2.9719    8.7600   -0.0034 C.2       1 <0>         0.2280
      8 N1          3.0612    9.4608   -1.1720 N.am      1 <0>        -0.6638
      9 C6          3.4654   10.7353   -1.2445 C.2       1 <0>         0.7098
     10 O3          3.5120   11.2763   -2.3320 O.2       1 <0>        -0.5640
     11 N2          3.8218   11.4379   -0.1511 N.am      1 <0>        -0.7301
     12 C7          3.7606   10.7717    1.1608 C.3       1 <0>         0.2463
     13 H1          4.8116   10.7542    1.4850 H         1 <0>         0.1002
     14 C8          2.8344   11.5680    2.0435 C.ar      1 <0>        -0.0988
     15 C9          1.6747   12.1078    1.5192 C.ar      1 <0>        -0.0770
     16 C10         0.8221   12.8334    2.3296 C.ar      1 <0>        -0.1063
     17 C11         1.1350   13.0291    3.6630 C.ar      1 <0>        -0.0269
     18 C12         2.2985   12.4934    4.1857 C.ar      1 <0>        -0.1063
     19 C13         3.1476   11.7631    3.3757 C.ar      1 <0>        -0.0925
     20 Cl1         0.0683   13.9469    4.6797 Cl        1 <0>        -0.0667
     21 C14         2.5046    7.3275   -0.0320 C.3       1 <0>        -0.1041
     22 S1          0.7145    7.2820   -0.2953 S.3       1 <0>         0.0695
     23 C15         0.4479    5.5403   -0.2854 C.ar      1 <0>         0.3587
     24 N3         -0.7820    5.0684   -0.4534 N.ar      1 <0>        -0.5770
     25 C16        -1.0429    3.7724   -0.4553 C.ar      1 <0>         0.5129
     26 C17         0.0222    2.8468   -0.2722 C.ar      1 <0>        -0.2667
     27 C18        -0.0065    1.3941   -0.2408 C.2       1 <0>        -0.1084
     28 C19         1.1364    0.7207   -0.0474 C.2       1 <0>        -0.1732
     29 S2          2.3599    2.0095    0.0970 S.3       1 <0>         0.1091
     30 C20         1.3011    3.4185   -0.0993 C.ar      1 <0>         0.1613
     31 N4          1.4792    4.7252   -0.1099 N.ar      1 <0>        -0.5351
     32 N5         -2.3378    3.3207   -0.6339 N.pl3     1 <0>        -0.8430
     33 H2          0.5057    7.0140    5.6406 H         1 <0>         0.0799
     34 H3         -0.0924    7.0696    3.9477 H         1 <0>         0.0665
     35 H4          0.1244    8.5932    4.8742 H         1 <0>         0.0691
     36 H5          2.5816    8.1999    4.9461 H         1 <0>         0.0704
     37 H6          2.3649    6.6763    4.0196 H         1 <0>         0.0672
     38 H7          2.7931    8.9792   -2.1240 H         1 <0>         0.4589
     39 H8          4.1525   12.4846   -0.2215 H         1 <0>         0.4629
     40 H9          1.4328   11.9587    0.4773 H         1 <0>         0.1283
     41 H10        -0.0861   13.2514    1.9210 H         1 <0>         0.1355
     42 H11         2.5435   12.6461    5.2264 H         1 <0>         0.1358
     43 H12         4.0561   11.3452    3.7836 H         1 <0>         0.1323
     44 H13         3.0093    6.7935   -0.8506 H         1 <0>         0.1292
     45 H14         2.7468    6.8436    0.9257 H         1 <0>         0.1220
     46 H15        -0.9382    0.8632   -0.3692 H         1 <0>         0.1371
     47 H16         1.2821   -0.3482    0.0041 H         1 <0>         0.1965
     48 H17        -2.5485    2.2411   -0.6345 H         1 <0>         0.4371
     49 H18        -3.1570    4.0411   -0.7753 H         1 <0>         0.4360
@<TRIPOS>BOND
     1    1    2 1
     2    1   33 1
     3    1   34 1
     4    1   35 1
     5    2    3 1
     6    2   36 1
     7    2   37 1
     8    3    4 1
     9    4    5 2
    10    4    6 1
    11    6   12 1
    12    6    7 2
    13    7    8 1
    14    7   21 1
    15    8    9 am
    16    8   38 1
    17    9   10 2
    18    9   11 am
    19   11   12 1
    20   11   39 1
    21   12   13 1
    22   12   14 1
    23   14   19 ar
    24   14   15 ar
    25   15   16 ar
    26   15   40 1
    27   16   17 ar
    28   16   41 1
    29   17   18 ar
    30   17   20 1
    31   18   19 ar
    32   18   42 1
    33   19   43 1
    34   21   22 1
    35   21   44 1
    36   21   45 1
    37   22   23 1
    38   23   31 ar
    39   23   24 ar
    40   24   25 ar
    41   25   26 ar
    42   25   32 1
    43   26   30 ar
    44   26   27 1
    45   27   28 2
    46   27   46 1
    47   28   29 1
    48   28   47 1
    49   29   30 1
    50   30   31 ar
    51   32   48 1
    52   32   49 1
@<TRIPOS>MOLECULE
ZINC39856108
   51    53     0     0     0
SMALL
USER_CHARGES

@<TRIPOS>ATOM
      1 C1         -0.0051    1.5022    0.0096 C.3       1 <0>        -0.1017
      2 C2          0.0214   -0.0045    0.0016 C.2       1 <0>        -0.0169
      3 C3          0.0391   -0.8388   -1.1227 C.2       1 <0>        -0.1677
      4 C4          0.0590   -2.1377   -0.6727 C.2       1 <0>         0.0904
      5 O1          0.0573   -2.1120    0.6582 O.3       1 <0>        -0.1427
      6 C5          0.0391   -0.8308    1.0908 C.2       1 <0>        -0.1071
      7 C6          0.0350   -0.4000    2.4931 C.2       1 <0>         0.6135
      8 O2          0.0145    0.7860    2.7653 O.2       1 <0>        -0.4874
      9 N1          0.0540   -1.3176    3.4800 N.am      1 <0>        -0.6596
     10 C7          0.1669   -0.9089    4.8131 C.ar      1 <0>         0.1606
     11 C8          0.7589    0.3093    5.1197 C.ar      1 <0>        -0.0731
     12 C9          0.8689    0.7101    6.4368 C.ar      1 <0>        -0.1558
     13 C10         0.3903   -0.1000    7.4505 C.ar      1 <0>        -0.0742
     14 C11        -0.1994   -1.3138    7.1496 C.ar      1 <0>        -0.0855
     15 C12        -0.3184   -1.7184    5.8332 C.ar      1 <0>        -0.0400
     16 Cl1        -1.0659   -3.2389    5.4553 Cl        1 <0>        -0.0452
     17 C13         1.5118    2.0317    6.7700 C.3       1 <0>         0.5115
     18 F1          0.5352    3.0332    6.7910 F         1 <0>        -0.1709
     19 F2          2.1227    1.9497    8.0259 F         1 <0>        -0.1732
     20 F3          2.4743    2.3392    5.8024 F         1 <0>        -0.1728
     21 C14         0.0766   -3.3267   -1.5995 C.3       1 <0>        -0.0416
     22 C15        -0.4396   -2.9050   -2.9778 C.3       1 <0>        -0.0494
     23 C16         0.3303   -1.6845   -3.4930 C.3       1 <0>        -0.1164
     24 C17         0.0406   -0.5126   -2.5665 C.2       1 <0>         0.2159
     25 N2         -0.1883    0.6849   -3.0097 N.2       1 <0>        -0.2805
     26 N3         -0.1743    0.9364   -4.3878 N.pl3     1 <0>        -0.5374
     27 C18        -0.4121    2.1805   -4.8483 C.2       1 <0>         0.6044
     28 S1         -0.3950    2.4878   -6.5324 S.2       1 <0>        -0.6184
     29 N4         -0.6634    3.1828   -3.9829 N.pl3     1 <0>        -0.7838
     30 C19        -0.2612   -4.0649   -3.9595 C.3       1 <0>        -0.1450
     31 C20        -1.9259   -2.5569   -2.8747 C.3       1 <0>        -0.1556
     32 H1          1.0160    1.8836    0.0091 H         1 <0>         0.0822
     33 H2         -0.5275    1.8611   -0.8772 H         1 <0>         0.0784
     34 H3         -0.5231    1.8517    0.9027 H         1 <0>         0.0914
     35 H4         -0.0105   -2.2615    3.2660 H         1 <0>         0.4216
     36 H5          1.1334    0.9426    4.3290 H         1 <0>         0.1692
     37 H6          0.4778    0.2161    8.4794 H         1 <0>         0.1505
     38 H7         -0.5715   -1.9444    7.9435 H         1 <0>         0.1540
     39 H8          1.0963   -3.7005   -1.6919 H         1 <0>         0.1093
     40 H9         -0.5633   -4.1115   -1.1961 H         1 <0>         0.1052
     41 H10         1.3994   -1.8973   -3.4931 H         1 <0>         0.1067
     42 H11         0.0029   -1.4432   -4.5043 H         1 <0>         0.0867
     43 H12         0.0066    0.2151   -5.0107 H         1 <0>         0.4173
     44 H13        -0.6731    3.0087   -3.0287 H         1 <0>         0.4078
     45 H14        -0.8346    4.0782   -4.3143 H         1 <0>         0.4327
     46 H15        -0.8244   -4.9290   -3.6071 H         1 <0>         0.0684
     47 H16        -0.6277   -3.7686   -4.9424 H         1 <0>         0.0679
     48 H17         0.7954   -4.3233   -4.0285 H         1 <0>         0.0653
     49 H18        -2.0590   -1.7375   -2.1683 H         1 <0>         0.0593
     50 H19        -2.2974   -2.2560   -3.8543 H         1 <0>         0.0634
     51 H20        -2.4801   -3.4291   -2.5281 H         1 <0>         0.0682
@<TRIPOS>BOND
     1    1    2 1
     2    1   32 1
     3    1   33 1
     4    1   34 1
     5    2    6 2
     6    2    3 1
     7    3   24 1
     8    3    4 2
     9    4    5 1
    10    4   21 1
    11    5    6 1
    12    6    7 1
    13    7    8 2
    14    7    9 am
    15    9   10 1
    16    9   35 1
    17   10   15 ar
    18   10   11 ar
    19   11   12 ar
    20   11   36 1
    21   12   13 ar
    22   12   17 1
    23   13   14 ar
    24   13   37 1
    25   14   15 ar
    26   14   38 1
    27   15   16 1
    28   17   18 1
    29   17   19 1
    30   17   20 1
    31   21   22 1
    32   21   39 1
    33   21   40 1
    34   22   23 1
    35   22   30 1
    36   22   31 1
    37   23   24 1
    38   23   41 1
    39   23   42 1
    40   24   25 2
    41   25   26 1
    42   26   27 1
    43   26   43 1
    44   27   28 2
    45   27   29 1
    46   29   44 1
    47   29   45 1
    48   30   46 1
    49   30   47 1
    50   30   48 1
    51   31   49 1
    52   31   50 1
    53   31   51 1
@<TRIPOS>MOLECULE
ZINC40957752
   45    48     0     0     0
SMALL
USER_CHARGES

@<TRIPOS>ATOM
      1 C1         -0.2834    0.5111    2.2913 C.ar      1 <0>        -0.0844
      2 C2          0.8329    1.0652    2.8871 C.ar      1 <0>        -0.0849
      3 C3          2.0915    0.8121    2.3711 C.ar      1 <0>        -0.0108
      4 C4          2.2356    0.0030    1.2575 C.ar      1 <0>        -0.1538
      5 C5          1.1229   -0.5534    0.6581 C.ar      1 <0>        -0.0921
      6 C6         -0.1415   -0.3009    1.1740 C.ar      1 <0>         0.1692
      7 N1         -1.2711   -0.8641    0.5686 N.am      1 <0>        -0.6734
      8 C7         -2.4704   -0.2607    0.6868 C.2       1 <0>         0.7110
      9 O1         -2.5540    0.8253    1.2275 O.2       1 <0>        -0.5457
     10 N2         -3.5771   -0.8609    0.2057 N.am      1 <0>        -0.6726
     11 C8         -4.8045   -0.1823    0.2178 C.ar      1 <0>         0.1438
     12 C9         -4.8306    1.2053    0.2226 C.ar      1 <0>        -0.0890
     13 C10        -6.0394    1.8734    0.2340 C.ar      1 <0>        -0.0973
     14 C11        -7.2285    1.1584    0.2412 C.ar      1 <0>         0.0877
     15 C12        -7.2048   -0.2287    0.2365 C.ar      1 <0>        -0.1406
     16 C13        -5.9957   -0.8992    0.2193 C.ar      1 <0>         0.0866
     17 F1         -5.9718   -2.2499    0.2091 F         1 <0>        -0.1283
     18 O2         -8.4174    1.8175    0.2534 O.3       1 <0>        -0.2443
     19 C14        -9.1144    1.8537    1.4182 C.ar      1 <0>         0.1784
     20 C15        -8.5778    1.3263    2.5906 C.ar      1 <0>        -0.2404
     21 C16        -9.3166    1.3821    3.7554 C.ar      1 <0>         0.1619
     22 N3        -10.5193    1.9244    3.7776 N.ar      1 <0>        -0.4887
     23 C17       -11.0719    2.4388    2.6892 C.ar      1 <0>         0.3364
     24 C18       -10.3835    2.4243    1.4758 C.ar      1 <0>         0.0190
     25 N4        -11.2079    3.0344    0.5326 N.am      1 <0>        -0.6289
     26 H1        -10.9990    3.1668   -0.4053 H         1 <0>         0.4413
     27 C19       -12.3456    3.4080    1.1493 C.2       1 <0>         0.6929
     28 O3        -13.2822    3.9698    0.6126 O.2       1 <0>        -0.5393
     29 N5        -12.2939    3.0534    2.4467 N.am      1 <0>        -0.6232
     30 H2        -12.9891    3.2105    3.1047 H         1 <0>         0.4438
     31 C20         3.6080   -0.2705    0.6982 C.3       1 <0>         0.5109
     32 F2          3.4985   -1.1072   -0.4177 F         1 <0>        -0.1745
     33 F3          4.2063    0.9361    0.3195 F         1 <0>        -0.1671
     34 F4          4.3932   -0.8945    1.6736 F         1 <0>        -0.1674
     35 Cl1         3.4922    1.5110    3.1216 Cl        1 <0>        -0.0393
     36 H3         -1.2652    0.7056    2.6968 H         1 <0>         0.1653
     37 H4          0.7231    1.6969    3.7562 H         1 <0>         0.1527
     38 H5          1.2359   -1.1841   -0.2113 H         1 <0>         0.1524
     39 H6         -1.1906   -1.6886    0.0640 H         1 <0>         0.4165
     40 H7         -3.5247   -1.7622   -0.1489 H         1 <0>         0.4172
     41 H8         -3.9056    1.7627    0.2177 H         1 <0>         0.1695
     42 H9         -6.0590    2.9532    0.2377 H         1 <0>         0.1479
     43 H10        -8.1307   -0.7847    0.2421 H         1 <0>         0.1517
     44 H11        -7.5950    0.8785    2.5882 H         1 <0>         0.1528
     45 H12        -8.9025    0.9738    4.6655 H         1 <0>         0.1769
@<TRIPOS>BOND
     1    1    6 ar
     2    1    2 ar
     3    1   36 1
     4    2    3 ar
     5    2   37 1
     6    3    4 ar
     7    3   35 1
     8    4    5 ar
     9    4   31 1
    10    5    6 ar
    11    5   38 1
    12    6    7 1
    13    7    8 am
    14    7   39 1
    15    8    9 2
    16    8   10 am
    17   10   11 1
    18   10   40 1
    19   11   16 ar
    20   11   12 ar
    21   12   13 ar
    22   12   41 1
    23   13   14 ar
    24   13   42 1
    25   14   15 ar
    26   14   18 1
    27   15   16 ar
    28   15   43 1
    29   16   17 1
    30   18   19 1
    31   19   24 ar
    32   19   20 ar
    33   20   21 ar
    34   20   44 1
    35   21   22 ar
    36   21   45 1
    37   22   23 ar
    38   23   29 1
    39   23   24 ar
    40   24   25 1
    41   25   26 1
    42   25   27 am
    43   27   28 2
    44   27   29 am
    45   29   30 1
    46   31   32 1
    47   31   33 1
    48   31   34 1
@<TRIPOS>MOLECULE
ZINC07067429
   48    50     0     0     0
SMALL
USER_CHARGES
9-[(4-methoxybenzoyl)thiocarbamoylamino]-8-thiabicyclo[5.3.0]deca-9,11-diene-10-carboxamide
@<TRIPOS>ATOM
      1 C1          2.4159    4.1128    0.0007 C.3       1 <0>         0.0223
      2 O1          1.1538    3.4428    0.0091 O.3       1 <0>        -0.3086
      3 C2          1.1765    2.0859    0.0020 C.ar      1 <0>         0.1659
      4 C3         -0.0166    1.3727    0.0096 C.ar      1 <0>        -0.1566
      5 C4          0.0021   -0.0041    0.0020 C.ar      1 <0>        -0.0076
      6 C5          1.2230   -0.6844   -0.0133 C.ar      1 <0>        -0.1813
      7 C6          2.4204    0.0366   -0.0209 C.ar      1 <0>        -0.0443
      8 C7          2.3929    1.4132   -0.0133 C.ar      1 <0>        -0.2154
      9 C8          1.2477   -2.1594   -0.0210 C.2       1 <0>         0.5440
     10 O2          0.2054   -2.7848   -0.0140 O.2       1 <0>        -0.4079
     11 N1          2.4260   -2.8136   -0.0358 N.am      1 <0>        -0.6345
     12 C9          2.4486   -4.1611   -0.0428 C.2       1 <0>         0.4780
     13 S1          0.9806   -5.0419   -0.0329 S.2       1 <0>        -0.3768
     14 N2          3.6269   -4.8153   -0.0576 N.pl3     1 <0>        -0.5550
     15 C10         3.6501   -6.2006   -0.0648 C.2       1 <0>         0.0158
     16 C11         4.7501   -7.0441   -0.0855 C.2       1 <0>        -0.1911
     17 C12         4.5033   -8.4799   -0.0806 C.2       1 <0>        -0.0793
     18 C13         3.2003   -8.8333   -0.0745 C.2       1 <0>        -0.2351
     19 S2          2.3119   -7.3000   -0.0579 S.3       1 <0>         0.3207
     20 C14         2.6270  -10.2158   -0.0937 C.3       1 <0>        -0.0395
     21 C15         3.3252  -11.0688    0.9740 C.3       1 <0>        -0.1163
     22 C16         4.5486  -11.7255    0.3422 C.3       1 <0>        -0.1210
     23 C17         5.1509  -10.8051   -0.7176 C.3       1 <0>        -0.1223
     24 C18         5.6307   -9.5047   -0.0824 C.3       1 <0>        -0.0580
     25 C19         6.1148   -6.5096   -0.1069 C.2       1 <0>         0.5785
     26 O3          6.6992   -6.2909    0.9382 O.2       1 <0>        -0.5339
     27 N3          6.7225   -6.2602   -1.2837 N.am      1 <0>        -0.8493
     28 H1          2.2550    5.1909    0.0077 H         1 <0>         0.1065
     29 H2          2.9861    3.8248    0.8839 H         1 <0>         0.0604
     30 H3          2.9694    3.8339   -0.8959 H         1 <0>         0.0602
     31 H4         -0.9596    1.8991    0.0169 H         1 <0>         0.1452
     32 H5         -0.9253   -0.5575    0.0083 H         1 <0>         0.1503
     33 H6          3.3658   -0.4853   -0.0325 H         1 <0>         0.1249
     34 H7          3.3176    1.9710   -0.0192 H         1 <0>         0.1390
     35 H8          3.2577   -2.3145   -0.0414 H         1 <0>         0.4133
     36 H9          4.4586   -4.3162   -0.0633 H         1 <0>         0.4124
     37 H10         1.5589  -10.1698    0.1185 H         1 <0>         0.0719
     38 H11         2.7846  -10.6615   -1.0758 H         1 <0>         0.0854
     39 H12         3.6367  -10.4349    1.8042 H         1 <0>         0.0667
     40 H13         2.6415  -11.8372    1.3348 H         1 <0>         0.0679
     41 H14         5.2922  -11.9226    1.1144 H         1 <0>         0.0615
     42 H15         4.2542  -12.6668   -0.1219 H         1 <0>         0.0628
     43 H16         5.9937  -11.3064   -1.1934 H         1 <0>         0.0624
     44 H17         4.3961  -10.5810   -1.4714 H         1 <0>         0.0743
     45 H18         5.9461   -9.6976    0.9430 H         1 <0>         0.0743
     46 H19         6.4731   -9.1128   -0.6525 H         1 <0>         0.0623
     47 H20         6.2568   -6.4345   -2.1166 H         1 <0>         0.4043
     48 H21         7.6256   -5.9065   -1.2979 H         1 <0>         0.4024
@<TRIPOS>BOND
     1    1    2 1
     2    1   28 1
     3    1   29 1
     4    1   30 1
     5    2    3 1
     6    3    8 ar
     7    3    4 ar
     8    4    5 ar
     9    4   31 1
    10    5    6 ar
    11    5   32 1
    12    6    7 ar
    13    6    9 1
    14    7    8 ar
    15    7   33 1
    16    8   34 1
    17    9   10 2
    18    9   11 am
    19   11   12 1
    20   11   35 1
    21   12   13 2
    22   12   14 1
    23   14   15 1
    24   14   36 1
    25   15   19 1
    26   15   16 2
    27   16   17 1
    28   16   25 1
    29   17   24 1
    30   17   18 2
    31   18   19 1
    32   18   20 1
    33   20   21 1
    34   20   37 1
    35   20   38 1
    36   21   22 1
    37   21   39 1
    38   21   40 1
    39   22   23 1
    40   22   41 1
    41   22   42 1
    42   23   24 1
    43   23   43 1
    44   23   44 1
    45   24   45 1
    46   24   46 1
    47   25   26 2
    48   25   27 am
    49   27   47 1
    50   27   48 1
@<TRIPOS>MOLECULE
ZINC09486940
   57    60     0     0     0
SMALL
USER_CHARGES

@<TRIPOS>ATOM
      1 C1         -0.9008    1.5603    0.1975 C.3       1 <0>        -0.1186
      2 C2         -0.4548    0.1317    0.3743 C.ar      1 <0>        -0.0747
      3 C3          0.6068   -0.3555   -0.3665 C.ar      1 <0>        -0.1234
      4 C4          1.0193   -1.6631   -0.2085 C.ar      1 <0>        -0.0849
      5 C5          0.3646   -2.4925    0.6993 C.ar      1 <0>        -0.0277
      6 C6         -0.7038   -1.9966    1.4432 C.ar      1 <0>        -0.0875
      7 C7         -1.1050   -0.6859    1.2809 C.ar      1 <0>        -0.1216
      8 C8          0.8035   -3.8999    0.8731 C.2       1 <0>         0.1186
      9 C9          0.2290   -4.8379    1.7458 C.2       1 <0>        -0.1891
     10 C10         0.9170   -6.0113    1.6084 C.2       1 <0>         0.1527
     11 N1          1.8930   -5.8075    0.6752 N.pl3     1 <0>        -0.4547
     12 H1          2.5383   -6.4649    0.3713 H         1 <0>         0.4436
     13 N2          1.7945   -4.4829    0.2310 N.2       1 <0>        -0.2547
     14 C11         0.6539   -7.2661    2.3348 C.2       1 <0>         0.2731
     15 N3         -0.0885   -7.4056    3.4102 N.2       1 <0>        -0.2356
     16 N4         -0.0997   -8.6367    3.7785 N.2       1 <0>        -0.2731
     17 C12         0.6341   -9.3597    2.9619 C.2       1 <0>         0.1192
     18 N5          1.1345   -8.5154    2.0116 N.pl3     1 <0>        -0.3022
     19 N6          1.9452   -8.8419    0.9618 N.3       1 <0>        -0.5884
     20 S1          0.9140  -11.0960    3.0687 S.3       1 <0>         0.0802
     21 C13        -0.0312  -11.6037    4.5314 C.3       1 <0>        -0.1422
     22 C14         0.1242  -13.0881    4.7396 C.2       1 <0>         0.5349
     23 O1          0.8056  -13.7395    3.9764 O.2       1 <0>        -0.5008
     24 N7         -0.4939  -13.6919    5.7739 N.am      1 <0>        -0.6647
     25 C15        -0.4368  -15.0837    5.9072 C.ar      1 <0>         0.1240
     26 C16         0.0119  -15.6513    7.0925 C.ar      1 <0>        -0.0830
     27 C17         0.0671  -17.0253    7.2210 C.ar      1 <0>        -0.1163
     28 C18        -0.3239  -17.8356    6.1708 C.ar      1 <0>        -0.0768
     29 C19        -0.7707  -17.2735    4.9891 C.ar      1 <0>        -0.1156
     30 C20        -0.8342  -15.9002    4.8566 C.ar      1 <0>        -0.0634
     31 C21        -1.3281  -15.2885    3.5709 C.3       1 <0>        -0.1115
     32 C22        -0.2623  -19.3345    6.3144 C.3       1 <0>        -0.1164
     33 C23         0.4387  -14.7690    8.2373 C.3       1 <0>        -0.1164
     34 H2         -0.3540    2.2000    0.8903 H         1 <0>         0.0727
     35 H3         -0.7016    1.8792   -0.8257 H         1 <0>         0.0676
     36 H4         -1.9692    1.6352    0.3999 H         1 <0>         0.0681
     37 H5          1.1136    0.2884   -1.0701 H         1 <0>         0.1259
     38 H6          1.8479   -2.0427   -0.7880 H         1 <0>         0.1296
     39 H7         -1.2150   -2.6355    2.1481 H         1 <0>         0.1301
     40 H8         -1.9305   -0.2992    1.8600 H         1 <0>         0.1276
     41 H9         -0.6067   -4.6636    2.4074 H         1 <0>         0.1643
     42 H10         2.9179   -8.7759    1.2219 H         1 <0>         0.3695
     43 H11         1.7270   -9.7616    0.6088 H         1 <0>         0.3865
     44 H12         0.3418  -11.0729    5.4073 H         1 <0>         0.1323
     45 H13        -1.0847  -11.3659    4.3838 H         1 <0>         0.1332
     46 H14        -0.9783  -13.1617    6.4259 H         1 <0>         0.4128
     47 H15         0.4163  -17.4674    8.1424 H         1 <0>         0.1270
     48 H16        -1.0751  -17.9091    4.1707 H         1 <0>         0.1264
     49 H17        -0.5106  -15.2460    2.8512 H         1 <0>         0.0834
     50 H18        -2.1371  -15.8967    3.1664 H         1 <0>         0.0662
     51 H19        -1.6938  -14.2802    3.7653 H         1 <0>         0.0557
     52 H20        -1.2093  -19.7007    6.7109 H         1 <0>         0.0725
     53 H21        -0.0779  -19.7856    5.3395 H         1 <0>         0.0678
     54 H22         0.5447  -19.6013    6.9968 H         1 <0>         0.0677
     55 H23        -0.4136  -14.5849    8.8914 H         1 <0>         0.0737
     56 H24         1.2297  -15.2630    8.8015 H         1 <0>         0.0719
     57 H25         0.8086  -13.8209    7.8469 H         1 <0>         0.0645
@<TRIPOS>BOND
     1    1    2 1
     2    1   34 1
     3    1   35 1
     4    1   36 1
     5    2    7 ar
     6    2    3 ar
     7    3    4 ar
     8    3   37 1
     9    4    5 ar
    10    4   38 1
    11    5    6 ar
    12    5    8 1
    13    6    7 ar
    14    6   39 1
    15    7   40 1
    16    8   13 2
    17    8    9 1
    18    9   10 2
    19    9   41 1
    20   10   11 1
    21   10   14 1
    22   11   12 1
    23   11   13 1
    24   14   18 1
    25   14   15 2
    26   15   16 1
    27   16   17 2
    28   17   18 1
    29   17   20 1
    30   18   19 1
    31   19   42 1
    32   19   43 1
    33   20   21 1
    34   21   22 1
    35   21   44 1
    36   21   45 1
    37   22   23 2
    38   22   24 am
    39   24   25 1
    40   24   46 1
    41   25   30 ar
    42   25   26 ar
    43   26   27 ar
    44   26   33 1
    45   27   28 ar
    46   27   47 1
    47   28   29 ar
    48   28   32 1
    49   29   30 ar
    50   29   48 1
    51   30   31 1
    52   31   49 1
    53   31   50 1
    54   31   51 1
    55   32   52 1
    56   32   53 1
    57   32   54 1
    58   33   55 1
    59   33   56 1
    60   33   57 1
@<TRIPOS>MOLECULE
ZINC35570621
   44    46     0     0     0
SMALL
USER_CHARGES

@<TRIPOS>ATOM
      1 C1         -0.2389    0.2133   -1.4367 C.ar      1 <0>        -0.0771
      2 C2          0.7383    1.1637   -1.1972 C.ar      1 <0>        -0.1283
      3 C3          2.0280    0.7732   -0.9050 C.ar      1 <0>        -0.0492
      4 C4          2.3474   -0.5873   -0.8505 C.ar      1 <0>        -0.1731
      5 C5          1.3542   -1.5415   -1.0933 C.ar      1 <0>        -0.0785
      6 C6          0.0692   -1.1350   -1.3847 C.ar      1 <0>        -0.1252
      7 C7          3.7215   -1.0126   -0.5398 C.2       1 <0>         0.3949
      8 O1          4.5832   -0.1826   -0.3430 O.2       1 <0>        -0.4037
      9 C8          4.0577   -2.4798   -0.4662 C.3       1 <0>        -0.1512
     10 H1          3.1386   -3.0644   -0.4278 H         1 <0>         0.1516
     11 C9          4.8946   -2.7537    0.7880 C.3       1 <0>         0.1916
     12 H2          4.3594   -2.3972    1.6680 H         1 <0>         0.1359
     13 N1          6.1735   -2.0506    0.6750 N.pl3     1 <0>        -0.6577
     14 C10         6.7314   -1.8049   -0.5198 C.2       1 <0>         0.6037
     15 S1          8.2366   -0.9909   -0.5725 S.2       1 <0>        -0.5952
     16 N2          6.1570   -2.1722   -1.6750 N.pl3     1 <0>        -0.6877
     17 C11         4.8732   -2.8833   -1.6993 C.3       1 <0>         0.3113
     18 C12         4.1004   -2.5133   -2.9669 C.3       1 <0>         0.4284
     19 F1          3.9513   -1.1239   -3.0333 F         1 <0>        -0.1566
     20 F2          4.8046   -2.9610   -4.0898 F         1 <0>        -0.1665
     21 F3          2.8386   -3.1168   -2.9366 F         1 <0>        -0.1541
     22 O2          5.1084   -4.2927   -1.6761 O.3       1 <0>        -0.5142
     23 C13         5.1421   -4.2348    0.9147 C.ar      1 <0>        -0.1103
     24 C14         6.3655   -4.7642    0.5466 C.ar      1 <0>        -0.0109
     25 C15         6.5948   -6.1214    0.6618 C.ar      1 <0>        -0.1430
     26 C16         5.5967   -6.9537    1.1478 C.ar      1 <0>         0.1941
     27 C17         4.3706   -6.4201    1.5167 C.ar      1 <0>        -0.0778
     28 C18         4.1478   -5.0612    1.4041 C.ar      1 <0>        -0.0244
     29 N3          3.3035   -7.3052    2.0350 N.pl3     1 <0>         0.0361
     30 O3          2.2350   -6.8396    2.3564 O.2       1 <0>        -0.1664
     31 O4          3.5003   -8.4937    2.1369 O.3       1 <0>        -0.1345
     32 O5          5.8197   -8.2894    1.2617 O.3       1 <0>        -0.4725
     33 H3         -1.2482    0.5254   -1.6610 H         1 <0>         0.1328
     34 H4          0.4901    2.2139   -1.2396 H         1 <0>         0.1345
     35 H5          2.7896    1.5160   -0.7190 H         1 <0>         0.1365
     36 H6          1.5932   -2.5940   -1.0534 H         1 <0>         0.1294
     37 H7         -0.6989   -1.8706   -1.5725 H         1 <0>         0.1347
     38 H8          6.6265   -1.7560    1.4805 H         1 <0>         0.4424
     39 H9          6.5987   -1.9630   -2.5129 H         1 <0>         0.4381
     40 H10         5.6203   -4.6184   -2.4290 H         1 <0>         0.4002
     41 H11         7.1421   -4.1159    0.1684 H         1 <0>         0.1385
     42 H12         7.5502   -6.5344    0.3736 H         1 <0>         0.1559
     43 H13         3.1946   -4.6448    1.6947 H         1 <0>         0.1581
     44 H14         6.1843   -8.5558    2.1168 H         1 <0>         0.4094
@<TRIPOS>BOND
     1    1    6 ar
     2    1    2 ar
     3    1   33 1
     4    2    3 ar
     5    2   34 1
     6    3    4 ar
     7    3   35 1
     8    4    5 ar
     9    4    7 1
    10    5    6 ar
    11    5   36 1
    12    6   37 1
    13    7    8 2
    14    7    9 1
    15    9   10 1
    16    9   17 1
    17    9   11 1
    18   11   12 1
    19   11   13 1
    20   11   23 1
    21   13   14 1
    22   13   38 1
    23   14   15 2
    24   14   16 1
    25   16   17 1
    26   16   39 1
    27   17   18 1
    28   17   22 1
    29   18   19 1
    30   18   20 1
    31   18   21 1
    32   22   40 1
    33   23   28 ar
    34   23   24 ar
    35   24   25 ar
    36   24   41 1
    37   25   26 ar
    38   25   42 1
    39   26   27 ar
    40   26   32 1
    41   27   28 ar
    42   27   29 1
    43   28   43 1
    44   29   30 2
    45   29   31 1
    46   32   44 1
@<TRIPOS>MOLECULE
ZINC41006681
   60    63     0     0     0
SMALL
USER_CHARGES

@<TRIPOS>ATOM
      1 C1          1.0652    1.9373   -0.4497 C.3       1 <0>        -0.1831
      2 C2          0.5855    0.4846   -0.4278 C.3       1 <0>         0.1550
      3 C3         -0.9443    0.4527   -0.3466 C.3       1 <0>        -0.2038
      4 C4         -1.3878   -0.9852   -0.1917 C.2       1 <0>         0.3893
      5 O1         -2.2285   -1.4558   -0.9197 O.2       1 <0>        -0.4431
      6 C5         -0.7509   -1.8186    0.8983 C.3       1 <0>        -0.1617
      7 H1         -1.0661   -1.4483    1.8737 H         1 <0>         0.1499
      8 C6          0.7719   -1.7044    0.7719 C.3       1 <0>        -0.0021
      9 H2          1.0938   -2.1571   -0.1659 H         1 <0>         0.1198
     10 C7          1.1741   -0.2287    0.7905 C.3       1 <0>        -0.0908
     11 H3          2.2609   -0.1491    0.7670 H         1 <0>         0.1136
     12 C8          0.6532    0.4166    2.0488 C.2       1 <0>         0.5316
     13 O2         -0.5421    0.5126    2.2310 O.2       1 <0>        -0.5174
     14 N1          1.5155    0.8869    2.9717 N.am      1 <0>        -0.6571
     15 C9          1.0396    1.6196    4.0647 C.ar      1 <0>         0.1416
     16 C10        -0.2477    1.4044    4.5393 C.ar      1 <0>        -0.1319
     17 C11        -0.7144    2.1292    5.6183 C.ar      1 <0>        -0.1015
     18 C12         0.0985    3.0684    6.2259 C.ar      1 <0>        -0.1348
     19 C13         1.3806    3.2854    5.7554 C.ar      1 <0>        -0.0991
     20 C14         1.8555    2.5595    4.6807 C.ar      1 <0>        -0.1468
     21 C15         1.4270   -2.4188    1.9258 C.ar      1 <0>        -0.0597
     22 C16         0.8672   -2.3499    3.1885 C.ar      1 <0>        -0.1313
     23 C17         1.4657   -3.0041    4.2491 C.ar      1 <0>        -0.0952
     24 C18         2.6254   -3.7283    4.0499 C.ar      1 <0>        -0.1432
     25 C19         3.1889   -3.7989    2.7844 C.ar      1 <0>         0.1108
     26 C20         2.5829   -3.1464    1.7203 C.ar      1 <0>        -0.1195
     27 O3          4.3295   -4.5106    2.5859 O.3       1 <0>        -0.4997
     28 C21        -1.1690   -3.2583    0.7442 C.2       1 <0>         0.5316
     29 O4         -0.3313   -4.1174    0.5670 O.2       1 <0>        -0.5015
     30 N2         -2.4736   -3.5911    0.8032 N.am      1 <0>        -0.6635
     31 C22        -2.8517   -4.9382    0.8244 C.ar      1 <0>         0.1500
     32 C23        -4.0560   -5.3319    0.2560 C.ar      1 <0>        -0.1462
     33 C24        -4.4264   -6.6623    0.2786 C.ar      1 <0>        -0.0992
     34 C25        -3.5994   -7.6018    0.8665 C.ar      1 <0>        -0.1372
     35 C26        -2.3998   -7.2129    1.4338 C.ar      1 <0>        -0.1003
     36 C27        -2.0208   -5.8850    1.4090 C.ar      1 <0>        -0.1240
     37 O5          1.0137   -0.1767   -1.6201 O.3       1 <0>        -0.5504
     38 H4          2.1544    1.9608   -0.4129 H         1 <0>         0.0739
     39 H5          0.7221    2.4195   -1.3650 H         1 <0>         0.0733
     40 H6          0.6610    2.4664    0.4133 H         1 <0>         0.0702
     41 H7         -1.2774    1.0333    0.5136 H         1 <0>         0.1405
     42 H8         -1.3681    0.8702   -1.2599 H         1 <0>         0.0987
     43 H9          2.4660    0.7175    2.8782 H         1 <0>         0.4143
     44 H10        -0.8832    0.6712    4.0649 H         1 <0>         0.1511
     45 H11        -1.7155    1.9626    5.9876 H         1 <0>         0.1250
     46 H12        -0.2688    3.6340    7.0695 H         1 <0>         0.1227
     47 H13         2.0129    4.0199    6.2319 H         1 <0>         0.1262
     48 H14         2.8587    2.7257    4.3169 H         1 <0>         0.1249
     49 H15        -0.0389   -1.7838    3.3463 H         1 <0>         0.1193
     50 H16         1.0266   -2.9488    5.2343 H         1 <0>         0.1261
     51 H17         3.0930   -4.2386    4.8790 H         1 <0>         0.1282
     52 H18         3.0170   -3.2038    0.7331 H         1 <0>         0.1304
     53 H19         4.1795   -5.4376    2.3550 H         1 <0>         0.3931
     54 H20        -3.1505   -2.8969    0.8310 H         1 <0>         0.4116
     55 H21        -4.7025   -4.5986   -0.2030 H         1 <0>         0.1253
     56 H22        -5.3630   -6.9691   -0.1630 H         1 <0>         0.1262
     57 H23        -3.8913   -8.6415    0.8829 H         1 <0>         0.1231
     58 H24        -1.7563   -7.9490    1.8925 H         1 <0>         0.1245
     59 H25        -1.0814   -5.5826    1.8477 H         1 <0>         0.1334
     60 H26         0.6770    0.2227   -2.4339 H         1 <0>         0.3884
@<TRIPOS>BOND
     1    1    2 1
     2    1   38 1
     3    1   39 1
     4    1   40 1
     5    2   10 1
     6    2    3 1
     7    2   37 1
     8    3    4 1
     9    3   41 1
    10    3   42 1
    11    4    5 2
    12    4    6 1
    13    6    7 1
    14    6    8 1
    15    6   28 1
    16    8    9 1
    17    8   10 1
    18    8   21 1
    19   10   11 1
    20   10   12 1
    21   12   13 2
    22   12   14 am
    23   14   15 1
    24   14   43 1
    25   15   20 ar
    26   15   16 ar
    27   16   17 ar
    28   16   44 1
    29   17   18 ar
    30   17   45 1
    31   18   19 ar
    32   18   46 1
    33   19   20 ar
    34   19   47 1
    35   20   48 1
    36   21   26 ar
    37   21   22 ar
    38   22   23 ar
    39   22   49 1
    40   23   24 ar
    41   23   50 1
    42   24   25 ar
    43   24   51 1
    44   25   26 ar
    45   25   27 1
    46   26   52 1
    47   27   53 1
    48   28   29 2
    49   28   30 am
    50   30   31 1
    51   30   54 1
    52   31   36 ar
    53   31   32 ar
    54   32   33 ar
    55   32   55 1
    56   33   34 ar
    57   33   56 1
    58   34   35 ar
    59   34   57 1
    60   35   36 ar
    61   35   58 1
    62   36   59 1
    63   37   60 1
@<TRIPOS>MOLECULE
ZINC58774113
   55    57     0     0     0
SMALL
USER_CHARGES

@<TRIPOS>ATOM
      1 C1         -0.0225    1.8097    0.0120 C.3       1 <0>        -0.1214
      2 S1          0.0021   -0.0041    0.0020 S.3       1 <0>        -0.2592
      3 C2          0.8734   -0.4227   -1.5329 C.3       1 <0>        -0.0789
      4 C3          0.9658   -1.9439   -1.6683 C.3       1 <0>        -0.1195
      5 C4          1.7007   -2.2970   -2.9630 C.3       1 <0>         0.1619
      6 H1          1.2046   -1.8150   -3.8054 H         1 <0>         0.1113
      7 C5          1.6844   -3.7912   -3.1584 C.2       1 <0>         0.5000
      8 O1          2.6592   -4.4515   -2.8671 O.2       1 <0>        -0.4978
      9 N1          0.5867   -4.3937   -3.6568 N.am      1 <0>        -0.7328
     10 C6          0.5709   -5.8463   -3.8467 C.3       1 <0>         0.1263
     11 C7         -0.7822   -6.2709   -4.4208 C.3       1 <0>        -0.1488
     12 C8         -0.7987   -7.7879   -4.6192 C.3       1 <0>         0.1259
     13 N2         -2.0944   -8.1944   -5.1689 N.pl3     1 <0>        -0.5791
     14 C9         -3.1331   -8.5210   -4.2905 C.ar      1 <0>         0.1899
     15 C10        -2.8657   -9.2031   -3.1139 C.ar      1 <0>        -0.1473
     16 C11        -3.8987   -9.5243   -2.2507 C.ar      1 <0>        -0.0813
     17 C12        -5.1995   -9.1697   -2.5529 C.ar      1 <0>        -0.1343
     18 C13        -5.4783   -8.4876   -3.7261 C.ar      1 <0>        -0.0603
     19 C14        -4.4503   -8.1645   -4.5910 C.ar      1 <0>        -0.1478
     20 S2         -4.7738   -7.2960   -6.0941 S.3       1 <0>         0.0023
     21 C15        -3.4658   -7.8540   -7.1409 C.ar      1 <0>        -0.1478
     22 C16        -2.2596   -8.2396   -6.5575 C.ar      1 <0>         0.1911
     23 C17        -1.2250   -8.6741   -7.3712 C.ar      1 <0>        -0.1479
     24 C18        -1.3967   -8.7181   -8.7438 C.ar      1 <0>        -0.0819
     25 C19        -2.5951   -8.3310   -9.3123 C.ar      1 <0>        -0.1346
     26 C20        -3.6305   -7.9048   -8.5118 C.ar      1 <0>        -0.0602
     27 N3          3.0869   -1.8303   -2.8805 N.am      1 <0>        -0.7364
     28 C21         3.8975   -2.2946   -1.9089 C.2       1 <0>         0.7106
     29 O2          3.4783   -3.1007   -1.1010 O.2       1 <0>        -0.5613
     30 N4          5.1728   -1.8653   -1.8330 N.am      1 <0>        -0.8691
     31 H2          1.0001    2.1870    0.0043 H         1 <0>         0.0756
     32 H3         -0.5497    2.1708   -0.8711 H         1 <0>         0.0763
     33 H4         -0.5327    2.1613    0.9088 H         1 <0>         0.1031
     34 H5          0.3274   -0.0147   -2.3835 H         1 <0>         0.0805
     35 H6          1.8772    0.0015   -1.5082 H         1 <0>         0.0814
     36 H7          1.5118   -2.3519   -0.8177 H         1 <0>         0.1078
     37 H8         -0.0380   -2.3681   -1.6931 H         1 <0>         0.0845
     38 H9         -0.1928   -3.8656   -3.8898 H         1 <0>         0.3996
     39 H10         1.3643   -6.1310   -4.5378 H         1 <0>         0.0681
     40 H11         0.7298   -6.3398   -2.8879 H         1 <0>         0.0699
     41 H12        -1.5756   -5.9861   -3.7298 H         1 <0>         0.0755
     42 H13        -0.9411   -5.7773   -5.3796 H         1 <0>         0.0744
     43 H14        -0.0053   -8.0726   -5.3103 H         1 <0>         0.0856
     44 H15        -0.6399   -8.2814   -3.6604 H         1 <0>         0.0862
     45 H16        -1.8516   -9.4842   -2.8709 H         1 <0>         0.1298
     46 H17        -3.6868  -10.0560   -1.3349 H         1 <0>         0.1307
     47 H18        -5.9998   -9.4248   -1.8741 H         1 <0>         0.1316
     48 H19        -6.4946   -8.2100   -3.9638 H         1 <0>         0.1339
     49 H20        -0.2852   -8.9779   -6.9343 H         1 <0>         0.1295
     50 H21        -0.5883   -9.0568   -9.3749 H         1 <0>         0.1301
     51 H22        -2.7207   -8.3687  -10.3843 H         1 <0>         0.1313
     52 H23        -4.5667   -7.6023   -8.9573 H         1 <0>         0.1330
     53 H24         3.4214   -1.1873   -3.5250 H         1 <0>         0.4005
     54 H25         5.5073   -1.2222   -2.4776 H         1 <0>         0.3937
     55 H26         5.7562   -2.1994   -1.1338 H         1 <0>         0.4155
@<TRIPOS>BOND
     1    1    2 1
     2    1   31 1
     3    1   32 1
     4    1   33 1
     5    2    3 1
     6    3    4 1
     7    3   34 1
     8    3   35 1
     9    4    5 1
    10    4   36 1
    11    4   37 1
    12    5    6 1
    13    5    7 1
    14    5   27 1
    15    7    8 2
    16    7    9 am
    17    9   10 1
    18    9   38 1
    19   10   11 1
    20   10   39 1
    21   10   40 1
    22   11   12 1
    23   11   41 1
    24   11   42 1
    25   12   13 1
    26   12   43 1
    27   12   44 1
    28   13   22 1
    29   13   14 1
    30   14   19 ar
    31   14   15 ar
    32   15   16 ar
    33   15   45 1
    34   16   17 ar
    35   16   46 1
    36   17   18 ar
    37   17   47 1
    38   18   19 ar
    39   18   48 1
    40   19   20 1
    41   20   21 1
    42   21   26 ar
    43   21   22 ar
    44   22   23 ar
    45   23   24 ar
    46   23   49 1
    47   24   25 ar
    48   24   50 1
    49   25   26 ar
    50   25   51 1
    51   26   52 1
    52   27   28 am
    53   27   53 1
    54   28   29 2
    55   28   30 am
    56   30   54 1
    57   30   55 1
@<TRIPOS>MOLECULE
ZINC01673415
   37    38     0     0     0
SMALL
USER_CHARGES
2,2,2-trichloro-1-[[4-phenyl-6-(2,2,2-trichloro-1-hydroxy-ethyl)amino-1,3,5-triazin-2-yl]amino]ethanol
@<TRIPOS>ATOM
      1 C1         -3.6501   -2.1803    0.0276 C.ar      1 <0>        -0.0887
      2 C2         -2.4443   -2.8580    0.0115 C.ar      1 <0>        -0.1336
      3 C3         -1.2556   -2.1569    0.0030 C.ar      1 <0>        -0.0587
      4 C4         -1.2717   -0.7631    0.0106 C.ar      1 <0>        -0.0614
      5 C5         -2.4897   -0.0855    0.0322 C.ar      1 <0>        -0.0587
      6 C6         -3.6721   -0.7972    0.0352 C.ar      1 <0>        -0.1336
      7 C7          0.0021   -0.0041    0.0020 C.ar      1 <0>         0.4824
      8 N1         -0.0160    1.3256    0.0093 N.ar      1 <0>        -0.6159
      9 C8          1.1263    2.0058    0.0021 C.ar      1 <0>         0.6494
     10 N2          2.2862    1.3570   -0.0125 N.ar      1 <0>        -0.6435
     11 C9          2.3047    0.0280   -0.0198 C.ar      1 <0>         0.6494
     12 N3          1.1628   -0.6529   -0.0126 N.ar      1 <0>        -0.6159
     13 N4          3.5095   -0.6452   -0.0345 N.pl3     1 <0>        -0.6967
     14 C10         4.7678    0.1050   -0.0424 C.3       1 <0>         0.3472
     15 H1          4.6070    1.0888    0.3984 H         1 <0>         0.1711
     16 C11         5.8186   -0.6530    0.7713 C.3       1 <0>         0.0820
     17 Cl1         7.3672    0.2703    0.7615 Cl        1 <0>        -0.0507
     18 Cl2         5.2424   -0.8420    2.4693 Cl        1 <0>        -0.0641
     19 Cl3         6.0845   -2.2804    0.0422 Cl        1 <0>        -0.0831
     20 O1          5.2245    0.2548   -1.3882 O.3       1 <0>        -0.5276
     21 N5          1.1077    3.3859    0.0097 N.pl3     1 <0>        -0.6967
     22 C12         2.3664    4.1354    0.0017 C.3       1 <0>         0.3472
     23 H2          3.1509    3.5235   -0.4434 H         1 <0>         0.1711
     24 C13         2.1922    5.4161   -0.8172 C.3       1 <0>         0.0820
     25 Cl4         3.7413    6.3386   -0.8271 Cl        1 <0>        -0.0507
     26 Cl5         1.7354    4.9903   -2.5087 Cl        1 <0>        -0.0641
     27 Cl6         0.8945    6.4283   -0.0809 Cl        1 <0>        -0.0831
     28 O2          2.7284    4.4728    1.3423 O.3       1 <0>        -0.5275
     29 H3         -4.5778   -2.7331    0.0338 H         1 <0>         0.1273
     30 H4         -2.4330   -3.9380    0.0052 H         1 <0>         0.1300
     31 H5         -0.3148   -2.6871   -0.0100 H         1 <0>         0.1383
     32 H6         -2.5081    0.9943    0.0427 H         1 <0>         0.1383
     33 H7         -4.6165   -0.2733    0.0481 H         1 <0>         0.1300
     34 H8          3.5230   -1.6151   -0.0395 H         1 <0>         0.4208
     35 H9          5.3886   -0.5824   -1.8434 H         1 <0>         0.3836
     36 H10         0.2613    3.8594    0.0203 H         1 <0>         0.4207
     37 H11         2.0745    5.0180    1.8009 H         1 <0>         0.3836
@<TRIPOS>BOND
     1    1    6 ar
     2    1    2 ar
     3    1   29 1
     4    2    3 ar
     5    2   30 1
     6    3    4 ar
     7    3   31 1
     8    4    5 ar
     9    4    7 1
    10    5    6 ar
    11    5   32 1
    12    6   33 1
    13    7   12 ar
    14    7    8 ar
    15    8    9 ar
    16    9   10 ar
    17    9   21 1
    18   10   11 ar
    19   11   12 ar
    20   11   13 1
    21   13   14 1
    22   13   34 1
    23   14   15 1
    24   14   16 1
    25   14   20 1
    26   16   17 1
    27   16   18 1
    28   16   19 1
    29   20   35 1
    30   21   22 1
    31   21   36 1
    32   22   23 1
    33   22   24 1
    34   22   28 1
    35   24   25 1
    36   24   26 1
    37   24   27 1
    38   28   37 1
@<TRIPOS>MOLECULE
ZINC15107711
   60    63     0     0     0
SMALL
USER_CHARGES
methyl 4-[(4R,5R,6S)-5-[(2,4-dimethylphenyl)carbamoyl]-3,6-dihydroxy-6-methyl-1,4,5,7-tetrahydroindazol-4-yl]benzoate
@<TRIPOS>ATOM
      1 C1          0.3020    1.2225   -4.0183 C.3       1 <0>        -0.1127
      2 C2          0.2024    2.6436   -3.5266 C.ar      1 <0>        -0.1036
      3 C3         -0.7717    2.9891   -2.6077 C.ar      1 <0>        -0.1055
      4 C4         -0.8626    4.2893   -2.1516 C.ar      1 <0>        -0.1310
      5 C5          0.0187    5.2529   -2.6250 C.ar      1 <0>         0.1485
      6 C6          0.9922    4.9039   -3.5515 C.ar      1 <0>        -0.1156
      7 C7          1.0815    3.6003   -3.9995 C.ar      1 <0>        -0.0994
      8 C8          1.9501    5.9463   -4.0681 C.3       1 <0>        -0.1150
      9 N1         -0.0747    6.5727   -2.1695 N.am      1 <0>        -0.6583
     10 C9         -0.7298    6.8453   -1.0236 C.2       1 <0>         0.5317
     11 O1         -1.1444    5.9395   -0.3318 O.2       1 <0>        -0.5050
     12 C10        -0.9472    8.2757   -0.6021 C.3       1 <0>        -0.0863
     13 H1         -0.4179    8.9402   -1.2850 H         1 <0>         0.1049
     14 C11        -0.4135    8.4757    0.8217 C.3       1 <0>         0.0537
     15 H2         -0.4082    9.5379    1.0661 H         1 <0>         0.1021
     16 C12        -1.3191    7.7391    1.7769 C.2       1 <0>        -0.2465
     17 C13        -2.5668    7.3071    1.4635 C.2       1 <0>         0.1575
     18 N2         -3.0759    6.6948    2.5455 N.pl3     1 <0>        -0.4566
     19 H3         -3.9806    6.2740    2.6122 H         1 <0>         0.4484
     20 N3         -2.1142    6.7501    3.5653 N.2       1 <0>        -0.3492
     21 C14        -1.0584    7.3787    3.1014 C.2       1 <0>         0.2878
     22 O2          0.0869    7.6334    3.7889 O.3       1 <0>        -0.4337
     23 C15        -3.2182    7.5082    0.1179 C.3       1 <0>        -0.0921
     24 C16        -2.4440    8.5959   -0.6366 C.3       1 <0>         0.1555
     25 C17        -2.6909    9.9515    0.0285 C.3       1 <0>        -0.1846
     26 O3         -2.8897    8.6433   -1.9935 O.3       1 <0>        -0.5525
     27 C18         0.9855    7.9243    0.9215 C.ar      1 <0>        -0.0436
     28 C19         1.1800    6.5625    1.0707 C.ar      1 <0>        -0.1066
     29 C20         2.4580    6.0506    1.1577 C.ar      1 <0>        -0.0611
     30 C21         3.5563    6.9111    1.1056 C.ar      1 <0>        -0.1260
     31 C22         3.3526    8.2848    0.9603 C.ar      1 <0>        -0.0562
     32 C23         2.0694    8.7827    0.8691 C.ar      1 <0>        -0.1219
     33 C24         4.9277    6.3706    1.2034 C.2       1 <0>         0.5081
     34 O4          5.8812    7.1217    1.1573 O.2       1 <0>        -0.5066
     35 O5          5.1207    5.0448    1.3436 O.3       1 <0>        -0.3549
     36 C25         6.4949    4.5846    1.4333 C.3       1 <0>         0.0364
     37 H4          0.9761    0.6607   -3.3717 H         1 <0>         0.0682
     38 H5         -0.6857    0.7620   -4.0011 H         1 <0>         0.0647
     39 H6          0.6878    1.2169   -5.0378 H         1 <0>         0.0645
     40 H7         -1.4595    2.2403   -2.2434 H         1 <0>         0.1215
     41 H8         -1.6209    4.5577   -1.4309 H         1 <0>         0.1529
     42 H9          1.8385    3.3282   -4.7201 H         1 <0>         0.1232
     43 H10         1.5542    6.3803   -4.9862 H         1 <0>         0.0715
     44 H11         2.0733    6.7292   -3.3198 H         1 <0>         0.0605
     45 H12         2.9156    5.4833   -4.2719 H         1 <0>         0.0715
     46 H13         0.3321    7.2913   -2.6784 H         1 <0>         0.4097
     47 H14         0.0078    7.2667    4.7159 H         1 <0>         0.4020
     48 H15        -3.1876    6.5769   -0.4476 H         1 <0>         0.1091
     49 H16        -4.2534    7.8210    0.2543 H         1 <0>         0.0874
     50 H17        -2.1413   10.7249   -0.5080 H         1 <0>         0.0731
     51 H18        -3.7565   10.1796    0.0040 H         1 <0>         0.0669
     52 H19        -2.3507    9.9158    1.0635 H         1 <0>         0.0790
     53 H20        -3.8310    8.8419   -2.0916 H         1 <0>         0.3854
     54 H21         0.3294    5.8984    1.1150 H         1 <0>         0.1445
     55 H22         2.6085    4.9870    1.2697 H         1 <0>         0.1325
     56 H23         4.1978    8.9560    0.9196 H         1 <0>         0.1368
     57 H24         1.9104    9.8451    0.7570 H         1 <0>         0.1327
     58 H25         7.0317    4.8645    0.5269 H         1 <0>         0.0642
     59 H26         6.9761    5.0436    2.2969 H         1 <0>         0.0644
     60 H27         6.5085    3.5003    1.5434 H         1 <0>         0.1035
@<TRIPOS>BOND
     1    1    2 1
     2    1   37 1
     3    1   38 1
     4    1   39 1
     5    2    7 ar
     6    2    3 ar
     7    3    4 ar
     8    3   40 1
     9    4    5 ar
    10    4   41 1
    11    5    6 ar
    12    5    9 1
    13    6    7 ar
    14    6    8 1
    15    7   42 1
    16    8   43 1
    17    8   44 1
    18    8   45 1
    19    9   10 am
    20    9   46 1
    21   10   11 2
    22   10   12 1
    23   12   13 1
    24   12   24 1
    25   12   14 1
    26   14   15 1
    27   14   16 1
    28   14   27 1
    29   16   21 1
    30   16   17 2
    31   17   18 1
    32   17   23 1
    33   18   19 1
    34   18   20 1
    35   20   21 2
    36   21   22 1
    37   22   47 1
    38   23   24 1
    39   23   48 1
    40   23   49 1
    41   24   25 1
    42   24   26 1
    43   25   50 1
    44   25   51 1
    45   25   52 1
    46   26   53 1
    47   27   32 ar
    48   27   28 ar
    49   28   29 ar
    50   28   54 1
    51   29   30 ar
    52   29   55 1
    53   30   31 ar
    54   30   33 1
    55   31   32 ar
    56   31   56 1
    57   32   57 1
    58   33   34 2
    59   33   35 1
    60   35   36 1
    61   36   58 1
    62   36   59 1
    63   36   60 1
@<TRIPOS>MOLECULE
ZINC20527880
   46    48     0     0     0
SMALL
USER_CHARGES
2-[[4-amino-5-[(N'E)-N'-[(2,4-dichlorophenyl)methylene]hydrazino]-1,2,4-triazol-3-yl]sulfanyl]-N-(p-tolyl)acetamide
@<TRIPOS>ATOM
      1 C1          1.1432    3.5928   -0.0155 C.3       1 <0>        -0.1170
      2 C2          1.1682    2.0860   -0.0167 C.ar      1 <0>        -0.0994
      3 C3          2.1113    1.4123   -0.7709 C.ar      1 <0>        -0.1007
      4 C4          2.1370    0.0314   -0.7742 C.ar      1 <0>        -0.1181
      5 C5          1.2143   -0.6805   -0.0189 C.ar      1 <0>         0.1426
      6 C6          0.2684   -0.0009    0.7374 C.ar      1 <0>        -0.1389
      7 C7          0.2481    1.3801    0.7364 C.ar      1 <0>        -0.1018
      8 N1          1.2373   -2.0795   -0.0204 N.am      1 <0>        -0.6781
      9 C8          2.4096   -2.7341   -0.1369 C.2       1 <0>         0.5381
     10 O1          3.4521   -2.1143   -0.1440 O.2       1 <0>        -0.5076
     11 C9          2.4252   -4.2361   -0.2581 C.3       1 <0>        -0.1452
     12 S1          4.1390   -4.8138   -0.3979 S.3       1 <0>         0.0739
     13 C10         3.9894   -6.5644   -0.5301 C.2       1 <0>         0.1736
     14 N2          2.8684   -7.2455   -0.5178 N.2       1 <0>        -0.3055
     15 N3          3.1857   -8.6038   -0.6489 N.2       1 <0>        -0.3088
     16 C11         4.4901   -8.7091   -0.7288 C.2       1 <0>         0.4867
     17 N4          5.0207   -7.4510   -0.6574 N.pl3     1 <0>        -0.2620
     18 N5          6.3490   -7.1360   -0.7054 N.3       1 <0>        -0.7778
     19 N6          5.2062   -9.8898   -0.8628 N.pl3     1 <0>        -0.5616
     20 N7          4.5307  -11.1157   -0.9236 N.2       1 <0>        -0.1580
     21 C12         5.2011  -12.2209   -1.0490 C.2       1 <0>         0.0700
     22 C13         4.4903  -13.5108   -1.1130 C.ar      1 <0>        -0.0347
     23 C14         5.2084  -14.7019   -1.2479 C.ar      1 <0>        -0.0689
     24 C15         4.5376  -15.9050   -1.3072 C.ar      1 <0>        -0.1108
     25 C16         3.1546  -15.9355   -1.2339 C.ar      1 <0>        -0.0131
     26 C17         2.4360  -14.7597   -1.1002 C.ar      1 <0>        -0.1082
     27 C18         3.0950  -13.5485   -1.0333 C.ar      1 <0>        -0.0080
     28 Cl1         2.1932  -12.0755   -0.8579 Cl        1 <0>         0.0022
     29 Cl2         2.3187  -17.4551   -1.3095 Cl        1 <0>        -0.0529
     30 H1          1.9433    3.9733   -0.6674 H         1 <0>         0.0656
     31 H2          1.2988    3.9613    1.0092 H         1 <0>         0.0698
     32 H3          0.1692    3.9436   -0.3874 H         1 <0>         0.0699
     33 H4          2.8315    1.9666   -1.3546 H         1 <0>         0.1257
     34 H5          2.8736   -0.4942   -1.3637 H         1 <0>         0.1337
     35 H6         -0.4507   -0.5517    1.3255 H         1 <0>         0.1268
     36 H7         -0.4870    1.9092    1.3247 H         1 <0>         0.1265
     37 H8          0.2985   -2.6451    0.0735 H         1 <0>         0.4401
     38 H9          1.9600   -4.6808    0.6340 H         1 <0>         0.1320
     39 H10         1.8624   -4.5376   -1.1539 H         1 <0>         0.1330
     40 H11         7.0998   -7.9330   -0.8101 H         1 <0>         0.4367
     41 H12         6.6678   -6.0853   -0.6393 H         1 <0>         0.4496
     42 H13         6.3043   -9.8634   -0.9213 H         1 <0>         0.4074
     43 H14         6.2992  -12.1945   -1.1074 H         1 <0>         0.1328
     44 H15         6.2866  -14.6800   -1.3059 H         1 <0>         0.1474
     45 H16         5.0918  -16.8261   -1.4115 H         1 <0>         0.1451
     46 H17         1.3579  -14.7905   -1.0436 H         1 <0>         0.1477
@<TRIPOS>BOND
     1    1    2 1
     2    1   30 1
     3    1   31 1
     4    1   32 1
     5    2    7 ar
     6    2    3 ar
     7    3    4 ar
     8    3   33 1
     9    4    5 ar
    10    4   34 1
    11    5    6 ar
    12    5    8 1
    13    6    7 ar
    14    6   35 1
    15    7   36 1
    16    8    9 am
    17    8   37 1
    18    9   10 2
    19    9   11 1
    20   11   12 1
    21   11   38 1
    22   11   39 1
    23   12   13 1
    24   13   17 1
    25   13   14 2
    26   14   15 1
    27   15   16 2
    28   16   17 1
    29   16   19 1
    30   17   18 1
    31   18   40 1
    32   18   41 1
    33   19   20 1
    34   19   42 1
    35   20   21 2
    36   21   22 1
    37   21   43 1
    38   22   27 ar
    39   22   23 ar
    40   23   24 ar
    41   23   44 1
    42   24   25 ar
    43   24   45 1
    44   25   26 ar
    45   25   29 1
    46   26   27 ar
    47   26   46 1
    48   27   28 1
@<TRIPOS>MOLECULE
ZINC32125207
   54    56     0     0     0
SMALL
USER_CHARGES
2-[(4-propoxybenzoyl)carbamothioylamino]-5,6,7,8-tetrahydro-4H-cyclohepta[b]thiophene-3-carboxamide
@<TRIPOS>ATOM
      1 C1          3.5414    6.3435    0.0015 C.3       1 <0>        -0.1529
      2 C2          2.1900    5.6260    0.0105 C.3       1 <0>        -0.1259
      3 C3          2.4159    4.1128    0.0007 C.3       1 <0>         0.0529
      4 O1          1.1538    3.4428    0.0091 O.3       1 <0>        -0.3074
      5 C4          1.1765    2.0859    0.0020 C.ar      1 <0>         0.1685
      6 C5         -0.0166    1.3727    0.0096 C.ar      1 <0>        -0.1569
      7 C6          0.0021   -0.0041    0.0020 C.ar      1 <0>        -0.0091
      8 C7          1.2230   -0.6844   -0.0133 C.ar      1 <0>        -0.1794
      9 C8          2.4204    0.0366   -0.0209 C.ar      1 <0>        -0.0436
     10 C9          2.3929    1.4132   -0.0133 C.ar      1 <0>        -0.2162
     11 C10         1.2477   -2.1594   -0.0210 C.2       1 <0>         0.5460
     12 O2          0.2054   -2.7848   -0.0140 O.2       1 <0>        -0.4122
     13 N1          2.4260   -2.8136   -0.0358 N.am      1 <0>        -0.6487
     14 C11         2.4486   -4.1611   -0.0428 C.2       1 <0>         0.4886
     15 S1          0.9806   -5.0419   -0.0329 S.2       1 <0>        -0.3963
     16 N2          3.6269   -4.8153   -0.0576 N.pl3     1 <0>        -0.5677
     17 C12         3.6501   -6.2006   -0.0648 C.2       1 <0>         0.0236
     18 C13         4.7501   -7.0441   -0.0855 C.2       1 <0>        -0.1920
     19 C14         4.5033   -8.4799   -0.0806 C.2       1 <0>        -0.0795
     20 C15         3.2003   -8.8333   -0.0745 C.2       1 <0>        -0.2380
     21 S2          2.3119   -7.3000   -0.0579 S.3       1 <0>         0.3113
     22 C16         2.6270  -10.2158   -0.0937 C.3       1 <0>        -0.0407
     23 C17         3.3252  -11.0688    0.9740 C.3       1 <0>        -0.1164
     24 C18         4.5486  -11.7255    0.3422 C.3       1 <0>        -0.1204
     25 C19         5.1509  -10.8051   -0.7176 C.3       1 <0>        -0.1236
     26 C20         5.6307   -9.5047   -0.0824 C.3       1 <0>        -0.0584
     27 C21         6.1148   -6.5096   -0.1069 C.2       1 <0>         0.5797
     28 O3          6.6992   -6.2909    0.9382 O.2       1 <0>        -0.5445
     29 N3          6.7225   -6.2602   -1.2837 N.am      1 <0>        -0.8723
     30 H1          3.3790    7.4314    0.0085 H         1 <0>         0.0680
     31 H2          4.1000    6.0620   -0.9034 H         1 <0>         0.0587
     32 H3          4.1168    6.0529    0.8928 H         1 <0>         0.0589
     33 H4          1.6314    5.9075    0.9154 H         1 <0>         0.0764
     34 H5          1.6146    5.9166   -0.8808 H         1 <0>         0.0763
     35 H6          2.9745    3.8313   -0.9042 H         1 <0>         0.0671
     36 H7          2.9913    3.8222    0.8920 H         1 <0>         0.0673
     37 H8         -0.9596    1.8991    0.0169 H         1 <0>         0.1442
     38 H9         -0.9253   -0.5575    0.0083 H         1 <0>         0.1491
     39 H10         3.3658   -0.4853   -0.0325 H         1 <0>         0.1247
     40 H11         3.3176    1.9710   -0.0192 H         1 <0>         0.1377
     41 H12         3.3692   -2.2477   -0.0422 H         1 <0>         0.4364
     42 H13         4.5701   -4.2494   -0.0640 H         1 <0>         0.4360
     43 H14         1.5489  -10.1686    0.1195 H         1 <0>         0.0712
     44 H15         2.7854  -10.6647   -1.0854 H         1 <0>         0.0850
     45 H16         3.6337  -10.4267    1.8122 H         1 <0>         0.0665
     46 H17         2.6308  -11.8399    1.3391 H         1 <0>         0.0676
     47 H18         5.3018  -11.9219    1.1195 H         1 <0>         0.0617
     48 H19         4.2529  -12.6741   -0.1298 H         1 <0>         0.0631
     49 H20         6.0052  -11.3064   -1.1959 H         1 <0>         0.0621
     50 H21         4.3898  -10.5730   -1.4771 H         1 <0>         0.0748
     51 H22         6.4817   -9.1125   -0.6585 H         1 <0>         0.0623
     52 H23         5.9482   -9.7024    0.9521 H         1 <0>         0.0728
     53 H24         7.7466   -5.8591   -1.2997 H         1 <0>         0.4209
     54 H25         6.1944   -6.4578   -2.2282 H         1 <0>         0.4228
@<TRIPOS>BOND
     1    1    2 1
     2    1   30 1
     3    1   31 1
     4    1   32 1
     5    2    3 1
     6    2   33 1
     7    2   34 1
     8    3    4 1
     9    3   35 1
    10    3   36 1
    11    4    5 1
    12    5   10 ar
    13    5    6 ar
    14    6    7 ar
    15    6   37 1
    16    7    8 ar
    17    7   38 1
    18    8    9 ar
    19    8   11 1
    20    9   10 ar
    21    9   39 1
    22   10   40 1
    23   11   12 2
    24   11   13 am
    25   13   14 1
    26   13   41 1
    27   14   15 2
    28   14   16 1
    29   16   17 1
    30   16   42 1
    31   17   21 1
    32   17   18 2
    33   18   19 1
    34   18   27 1
    35   19   26 1
    36   19   20 2
    37   20   21 1
    38   20   22 1
    39   22   23 1
    40   22   43 1
    41   22   44 1
    42   23   24 1
    43   23   45 1
    44   23   46 1
    45   24   25 1
    46   24   47 1
    47   24   48 1
    48   25   26 1
    49   25   49 1
    50   25   50 1
    51   26   51 1
    52   26   52 1
    53   27   28 2
    54   27   29 am
    55   29   53 1
    56   29   54 1
@<TRIPOS>MOLECULE
ZINC38999761
   45    48     0     0     0
SMALL
USER_CHARGES

@<TRIPOS>ATOM
      1 C1         -0.5316   -0.4213    3.4761 C.ar      1 <0>        -0.0872
      2 C2         -0.3483   -1.3342    2.4546 C.ar      1 <0>        -0.1063
      3 C3          0.9033   -1.8796    2.2301 C.ar      1 <0>        -0.0102
      4 C4          1.9714   -1.5108    3.0280 C.ar      1 <0>        -0.0604
      5 C5          1.7875   -0.5968    4.0499 C.ar      1 <0>        -0.0105
      6 C6          0.5353   -0.0524    4.2737 C.ar      1 <0>        -0.1059
      7 Cl1         3.1272   -0.1337    5.0520 Cl        1 <0>        -0.0435
      8 C7          3.3348   -2.1048    2.7843 C.3       1 <0>        -0.0669
      9 S1          4.2457   -1.0660    1.6089 S.3       1 <0>        -0.1684
     10 C8          5.8938   -1.8209    1.5417 C.3       1 <0>         0.2532
     11 H1          6.2293   -2.0918    2.5428 H         1 <0>         0.1396
     12 N1          5.8835   -3.0144    0.6558 N.3       1 <0>        -0.4842
     13 N2          7.2920   -3.1382    0.2489 N.3       1 <0>        -0.4864
     14 C9          7.7509   -1.7414    0.0741 C.3       1 <0>         0.2254
     15 H2          7.6737   -1.4511   -0.9737 H         1 <0>         0.0784
     16 N3          6.8608   -0.8984    0.9028 N.3       1 <0>        -0.3507
     17 N4          6.1758    0.0925    0.0887 N.3       1 <0>        -0.6970
     18 C10         9.1977   -1.6010    0.5516 C.3       1 <0>        -0.0065
     19 H3          9.5038   -0.5549    0.5457 H         1 <0>         0.1526
     20 C11        10.1293   -2.4371   -0.3078 C.2       1 <0>        -0.1620
     21 C12        10.6649   -3.3177    0.5595 C.2       1 <0>         0.0275
     22 N5         10.1735   -3.1109    1.8095 N.2       1 <0>        -0.1586
     23 N6          9.3608   -2.1828    1.8941 N.2       1 <0>        -0.1078
     24 C13        11.6516   -4.3659    0.2006 C.ar      1 <0>        -0.0421
     25 C14        12.0941   -4.4879   -1.1153 C.ar      1 <0>        -0.0730
     26 C15        13.0122   -5.4638   -1.4446 C.ar      1 <0>        -0.1543
     27 C16        13.4938   -6.3221   -0.4693 C.ar      1 <0>         0.1094
     28 C17        13.0562   -6.2047    0.8401 C.ar      1 <0>        -0.1537
     29 C18        12.1430   -5.2277    1.1794 C.ar      1 <0>        -0.0555
     30 F1         14.3923   -7.2765   -0.7962 F         1 <0>        -0.1359
     31 Cl2         1.1330   -3.0270    0.9477 Cl        1 <0>        -0.0438
     32 H4         -1.5078    0.0073    3.6484 H         1 <0>         0.1455
     33 H5         -1.1823   -1.6221    1.8317 H         1 <0>         0.1435
     34 H6          0.3916    0.6611    5.0716 H         1 <0>         0.1438
     35 H7          3.8827   -2.1551    3.7252 H         1 <0>         0.1035
     36 H8          3.2256   -3.1085    2.3733 H         1 <0>         0.1080
     37 H9          5.2876   -2.8654   -0.1447 H         1 <0>         0.3295
     38 H10         7.3752   -3.6566   -0.6128 H         1 <0>         0.3522
     39 H11         5.6255    0.7140    0.6623 H         1 <0>         0.3706
     40 H12         6.8306    0.6093   -0.4791 H         1 <0>         0.3559
     41 H13        10.3185   -2.3468   -1.3672 H         1 <0>         0.1707
     42 H14        11.7187   -3.8198   -1.8763 H         1 <0>         0.1333
     43 H15        13.3556   -5.5590   -2.4641 H         1 <0>         0.1405
     44 H16        13.4340   -6.8760    1.5970 H         1 <0>         0.1418
     45 H17        11.8059   -5.1340    2.2012 H         1 <0>         0.1459
@<TRIPOS>BOND
     1    1    6 ar
     2    1    2 ar
     3    1   32 1
     4    2    3 ar
     5    2   33 1
     6    3    4 ar
     7    3   31 1
     8    4    5 ar
     9    4    8 1
    10    5    6 ar
    11    5    7 1
    12    6   34 1
    13    8    9 1
    14    8   35 1
    15    8   36 1
    16    9   10 1
    17   10   11 1
    18   10   16 1
    19   10   12 1
    20   12   13 1
    21   12   37 1
    22   13   14 1
    23   13   38 1
    24   14   15 1
    25   14   16 1
    26   14   18 1
    27   16   17 1
    28   17   39 1
    29   17   40 1
    30   18   19 1
    31   18   23 1
    32   18   20 1
    33   20   21 2
    34   20   41 1
    35   21   22 1
    36   21   24 1
    37   22   23 2
    38   24   29 ar
    39   24   25 ar
    40   25   26 ar
    41   25   42 1
    42   26   27 ar
    43   26   43 1
    44   27   28 ar
    45   27   30 1
    46   28   29 ar
    47   28   44 1
    48   29   45 1
@<TRIPOS>MOLECULE
ZINC03840724
   71    74     0     0     0
SMALL
USER_CHARGES
N-[1-(cyclopropylcarbamoyl)ethyl-hydroxy-dimethyl-BLAHyl]-3,3-dimethyl-butanamide
@<TRIPOS>ATOM
      1 C1         -1.6450    5.3766    0.5322 C.3       1 <0>        -0.1372
      2 C2         -1.8640    3.8805    0.2984 C.3       1 <0>         0.0003
      3 H1         -2.8085    3.7292   -0.2242 H         1 <0>         0.0823
      4 C3         -1.9047    3.1598    1.6372 C.2       1 <0>         0.0925
      5 C4         -1.2792    1.9624    1.7872 C.2       1 <0>        -0.2390
      6 S1         -1.6162    1.5527    3.4787 S.3       1 <0>         0.1605
      7 C5         -2.5413    2.9739    3.8611 C.2       1 <0>         0.2769
      8 N1         -2.5299    3.6291    2.7143 N.2       1 <0>        -0.5419
      9 N2         -3.1417    3.3284    5.0636 N.am      1 <0>        -0.6127
     10 C6         -3.0421    2.5135    6.1325 C.2       1 <0>         0.5145
     11 O1         -2.4286    1.4710    6.0452 O.2       1 <0>        -0.4889
     12 C7         -3.6931    2.8978    7.4362 C.3       1 <0>        -0.1248
     13 C8         -3.4305    1.8084    8.4779 C.3       1 <0>        -0.0516
     14 C9         -1.9226    1.6551    8.6866 C.3       1 <0>        -0.1565
     15 C10        -4.0914    2.1986    9.8015 C.3       1 <0>        -0.1434
     16 C11        -4.0150    0.4823    7.9875 C.3       1 <0>        -0.1563
     17 C12        -0.5100    1.2058    0.7629 C.3       1 <0>        -0.0216
     18 C13        -0.8076    1.7968   -0.6291 C.3       1 <0>        -0.0430
     19 C14        -0.7148    3.3225   -0.5512 C.3       1 <0>        -0.0579
     20 H2          0.2393    3.6082   -0.1082 H         1 <0>         0.0838
     21 C15        -0.8428    3.9302   -1.9521 C.3       1 <0>         0.1159
     22 H3         -1.8218    3.6847   -2.3636 H         1 <0>         0.0610
     23 C16         0.2445    3.3797   -2.8724 C.3       1 <0>        -0.0964
     24 H4          1.2258    3.6118   -2.4584 H         1 <0>         0.0900
     25 C17         0.0781    1.8609   -2.9782 C.3       1 <0>        -0.1173
     26 C18         0.2536    1.2502   -1.5892 C.3       1 <0>        -0.1093
     27 C19         0.1084    4.0086   -4.2606 C.3       1 <0>        -0.1092
     28 H5          0.0983    5.0946   -4.1681 H         1 <0>         0.0991
     29 C20        -1.1965    3.5396   -4.9072 C.3       1 <0>        -0.1541
     30 C21         1.2737    3.5884   -5.1188 C.2       1 <0>         0.5238
     31 O2          2.1641    2.9149   -4.6450 O.2       1 <0>        -0.5283
     32 N3          1.3264    3.9610   -6.4130 N.am      1 <0>        -0.7040
     33 C22         2.4592    3.5525   -7.2473 C.3       1 <0>         0.0775
     34 C23         3.0710    4.6060   -8.1730 C.3       1 <0>        -0.1931
     35 C24         2.2303    3.4693   -8.7578 C.3       1 <0>        -0.1889
     36 O3         -0.7092    5.3503   -1.8653 O.3       1 <0>        -0.5526
     37 C25        -2.2076    1.3811   -1.0853 C.3       1 <0>        -0.1453
     38 H6         -1.8172    5.9187   -0.3977 H         1 <0>         0.0826
     39 H7         -2.3400    5.7310    1.2934 H         1 <0>         0.0541
     40 H8         -0.6217    5.5460    0.8673 H         1 <0>         0.0471
     41 H9         -3.6324    4.1622    5.1334 H         1 <0>         0.4242
     42 H10        -3.2767    3.8426    7.7856 H         1 <0>         0.1036
     43 H11        -4.7674    3.0070    7.2876 H         1 <0>         0.1035
     44 H12        -1.5062    2.5999    9.0360 H         1 <0>         0.0486
     45 H13        -1.7355    0.8790    9.4287 H         1 <0>         0.0558
     46 H14        -1.4518    1.3771    7.7436 H         1 <0>         0.0807
     47 H15        -5.1657    2.3078    9.6529 H         1 <0>         0.0565
     48 H16        -3.9044    1.4225   10.5437 H         1 <0>         0.0615
     49 H17        -3.6750    3.1434   10.1509 H         1 <0>         0.0566
     50 H18        -3.5442    0.2043    7.0445 H         1 <0>         0.0806
     51 H19        -3.8279   -0.2938    8.7296 H         1 <0>         0.0558
     52 H20        -5.0893    0.5915    7.8388 H         1 <0>         0.0485
     53 H21        -0.8066    0.1571    0.7849 H         1 <0>         0.0824
     54 H22         0.5564    1.2876    0.9735 H         1 <0>         0.0833
     55 H23        -0.9171    1.6277   -3.3569 H         1 <0>         0.0661
     56 H24         0.8324    1.4566   -3.6532 H         1 <0>         0.0802
     57 H25         1.2450    1.4968   -1.2094 H         1 <0>         0.0677
     58 H26         0.1553    0.1667   -1.6565 H         1 <0>         0.0682
     59 H27        -1.1863    2.4536   -4.9997 H         1 <0>         0.0698
     60 H28        -2.0393    3.8435   -4.2864 H         1 <0>         0.0706
     61 H29        -1.2934    3.9876   -5.8962 H         1 <0>         0.0601
     62 H30         0.6143    4.4997   -6.7920 H         1 <0>         0.4009
     63 H31         3.1339    2.8229   -6.7995 H         1 <0>         0.1379
     64 H32         2.6305    5.6030   -8.1612 H         1 <0>         0.0969
     65 H33         4.1483    4.5697   -8.3343 H         1 <0>         0.1031
     66 H34         2.7547    2.6851   -9.3038 H         1 <0>         0.1043
     67 H35         1.2369    3.7184   -9.1308 H         1 <0>         0.0972
     68 H36        -0.8789    5.8130   -2.6973 H         1 <0>         0.3683
     69 H37        -2.9461    1.7501   -0.3736 H         1 <0>         0.0592
     70 H38        -2.4092    1.8033   -2.0698 H         1 <0>         0.0602
     71 H39        -2.2648    0.2939   -1.1375 H         1 <0>         0.0589
@<TRIPOS>BOND
     1    1    2 1
     2    1   38 1
     3    1   39 1
     4    1   40 1
     5    2    3 1
     6    2   19 1
     7    2    4 1
     8    4    8 1
     9    4    5 2
    10    5    6 1
    11    5   17 1
    12    6    7 1
    13    7    8 2
    14    7    9 1
    15    9   10 am
    16    9   41 1
    17   10   11 2
    18   10   12 1
    19   12   13 1
    20   12   42 1
    21   12   43 1
    22   13   14 1
    23   13   15 1
    24   13   16 1
    25   14   44 1
    26   14   45 1
    27   14   46 1
    28   15   47 1
    29   15   48 1
    30   15   49 1
    31   16   50 1
    32   16   51 1
    33   16   52 1
    34   17   18 1
    35   17   53 1
    36   17   54 1
    37   18   26 1
    38   18   19 1
    39   18   37 1
    40   19   20 1
    41   19   21 1
    42   21   22 1
    43   21   23 1
    44   21   36 1
    45   23   24 1
    46   23   25 1
    47   23   27 1
    48   25   26 1
    49   25   55 1
    50   25   56 1
    51   26   57 1
    52   26   58 1
    53   27   28 1
    54   27   29 1
    55   27   30 1
    56   29   59 1
    57   29   60 1
    58   29   61 1
    59   30   31 2
    60   30   32 am
    61   32   33 1
    62   32   62 1
    63   33   35 1
    64   33   34 1
    65   33   63 1
    66   34   35 1
    67   34   64 1
    68   34   65 1
    69   35   66 1
    70   35   67 1
    71   36   68 1
    72   37   69 1
    73   37   70 1
    74   37   71 1
@<TRIPOS>MOLECULE
ZINC02858382
   46    48     0     0     0
SMALL
USER_CHARGES
3-(3,4-dichlorophenyl)-1-[4-(p-tolylsulfonylamino)phenyl]-thiourea
@<TRIPOS>ATOM
      1 C1          1.7919    5.1724    1.2723 C.3       1 <0>        -0.1269
      2 C2          0.9801    3.9548    0.9124 C.ar      1 <0>        -0.0248
      3 C3          0.6924    3.6826   -0.4120 C.ar      1 <0>        -0.1424
      4 C4         -0.0523    2.5658   -0.7421 C.ar      1 <0>        -0.0139
      5 C5         -0.5086    1.7207    0.2521 C.ar      1 <0>        -0.6825
      6 C6         -0.2250    1.9955    1.5769 C.ar      1 <0>        -0.0102
      7 C7          0.5234    3.1100    1.9067 C.ar      1 <0>        -0.1423
      8 S1         -1.4578    0.2970   -0.1686 S.o2      1 <0>         2.6898
      9 O1         -1.9664    0.5201   -1.4766 O.2       1 <0>        -0.9519
     10 O2         -2.3028    0.0296    0.9420 O.2       1 <0>        -0.9471
     11 N1         -0.4059   -0.9771   -0.2807 N.pl3     1 <0>        -1.0634
     12 C8          0.2710   -1.4277    0.8579 C.ar      1 <0>         0.1337
     13 C9          1.6261   -1.1644    1.0098 C.ar      1 <0>        -0.1040
     14 C10         2.2928   -1.6046    2.1359 C.ar      1 <0>        -0.0606
     15 C11         1.6111   -2.3205    3.1110 C.ar      1 <0>         0.1213
     16 C12         0.2574   -2.5884    2.9567 C.ar      1 <0>        -0.1072
     17 C13        -0.4109   -2.1434    1.8335 C.ar      1 <0>        -0.1006
     18 N2          2.2891   -2.7722    4.2511 N.pl3     1 <0>        -0.6223
     19 C14         3.4963   -3.3590    4.1290 C.2       1 <0>         0.5482
     20 S2          4.2497   -3.4557    2.5947 S.2       1 <0>        -0.5773
     21 N3          4.1103   -3.8697    5.2146 N.pl3     1 <0>        -0.6251
     22 C15         5.3998   -4.4017    5.1037 C.ar      1 <0>         0.1337
     23 C16         5.7178   -5.2390    4.0420 C.ar      1 <0>        -0.0515
     24 C17         6.9928   -5.7580    3.9309 C.ar      1 <0>        -0.0917
     25 C18         7.9504   -5.4543    4.8825 C.ar      1 <0>        -0.0209
     26 C19         7.6347   -4.6248    5.9455 C.ar      1 <0>        -0.0302
     27 C20         6.3616   -4.0979    6.0577 C.ar      1 <0>        -0.1004
     28 Cl1         8.8386   -4.2460    7.1376 Cl        1 <0>        -0.0409
     29 Cl2         9.5502   -6.1138    4.7433 Cl        1 <0>        -0.0420
     30 H1          1.1249    6.0195    1.4326 H         1 <0>         0.0806
     31 H2          2.3560    4.9764    2.1841 H         1 <0>         0.0732
     32 H3          2.4820    5.4019    0.4604 H         1 <0>         0.0740
     33 H4          1.0492    4.3427   -1.1888 H         1 <0>         0.1339
     34 H5         -0.2773    2.3532   -1.7768 H         1 <0>         0.1420
     35 H6         -0.5852    1.3376    2.3540 H         1 <0>         0.1373
     36 H7          0.7484    3.3225    2.9414 H         1 <0>         0.1321
     37 H8         -0.2591   -1.4110   -1.1357 H         1 <0>         0.4281
     38 H9          2.1575   -0.6117    0.2492 H         1 <0>         0.1358
     39 H10         3.3456   -1.3960    2.2562 H         1 <0>         0.1549
     40 H11        -0.2728   -3.1452    3.7152 H         1 <0>         0.1336
     41 H12        -1.4638   -2.3514    1.7136 H         1 <0>         0.1428
     42 H13         1.8897   -2.6625    5.1283 H         1 <0>         0.4114
     43 H14         3.6583   -3.8685    6.0729 H         1 <0>         0.4126
     44 H15         4.9699   -5.4801    3.3012 H         1 <0>         0.1654
     45 H16         7.2414   -6.4052    3.1028 H         1 <0>         0.1508
     46 H17         6.1154   -3.4510    6.8867 H         1 <0>         0.1447
@<TRIPOS>BOND
     1    1    2 1
     2    1   30 1
     3    1   31 1
     4    1   32 1
     5    2    7 ar
     6    2    3 ar
     7    3    4 ar
     8    3   33 1
     9    4    5 ar
    10    4   34 1
    11    5    6 ar
    12    5    8 1
    13    6    7 ar
    14    6   35 1
    15    7   36 1
    16    8    9 2
    17    8   10 2
    18    8   11 1
    19   11   12 1
    20   11   37 1
    21   12   17 ar
    22   12   13 ar
    23   13   14 ar
    24   13   38 1
    25   14   15 ar
    26   14   39 1
    27   15   16 ar
    28   15   18 1
    29   16   17 ar
    30   16   40 1
    31   17   41 1
    32   18   19 1
    33   18   42 1
    34   19   20 2
    35   19   21 1
    36   21   22 1
    37   21   43 1
    38   22   27 ar
    39   22   23 ar
    40   23   24 ar
    41   23   44 1
    42   24   25 ar
    43   24   45 1
    44   25   26 ar
    45   25   29 1
    46   26   27 ar
    47   26   28 1
    48   27   46 1
@<TRIPOS>MOLECULE
ZINC09504836
   69    73     0     0     0
SMALL
USER_CHARGES
2-(ethyl-dimethyl-oxo-BLAHyl)-N-[2-(1H-indol-3-yl)ethyl]acetamide
@<TRIPOS>ATOM
      1 C1         -7.1082   -3.1586    2.3412 C.3       1 <0>        -0.1596
      2 C2         -7.1592   -3.7367    3.7569 C.3       1 <0>        -0.1660
      3 C3         -6.3704   -5.0469    3.8015 C.3       1 <0>         0.1397
      4 H1         -6.7178   -5.6988    2.9999 H         1 <0>         0.1294
      5 C4         -6.6153   -5.7228    5.1272 C.2       1 <0>        -0.2205
      6 C5         -6.4505   -5.0321    6.2431 C.2       1 <0>         0.2304
      7 C6         -6.6620   -5.6407    7.6065 C.3       1 <0>        -0.0952
      8 C7         -7.7142   -6.7495    7.4987 C.3       1 <0>        -0.0563
      9 C8         -7.2532   -7.7714    6.4554 C.3       1 <0>        -0.1506
     10 C9         -7.0108   -7.0710    5.1433 C.2       1 <0>         0.3928
     11 O1         -7.1580   -7.6729    4.0977 O.2       1 <0>        -0.4382
     12 C10        -9.0525   -6.1458    7.0682 C.3       1 <0>        -0.1496
     13 C11        -7.8731   -7.4387    8.8555 C.3       1 <0>        -0.1419
     14 N1         -6.0843   -3.7232    6.1323 N.pl3     1 <0>        -0.7197
     15 C12        -4.8232   -3.3525    5.6639 C.ar      1 <0>         0.1210
     16 C13        -4.0285   -2.5260    6.4421 C.ar      1 <0>        -0.1046
     17 C14        -2.8377   -2.0297    5.9511 C.ar      1 <0>        -0.1415
     18 C15        -2.4444   -2.3610    4.6667 C.ar      1 <0>        -0.0951
     19 C16        -3.1984   -3.2277    3.9103 C.ar      1 <0>        -0.1746
     20 C17        -4.3795   -3.7901    4.4079 C.ar      1 <0>         0.1327
     21 N2         -4.9694   -4.7608    3.6027 N.pl3     1 <0>        -0.4713
     22 C18        -4.6782   -4.5160    2.1839 C.3       1 <0>         0.0101
     23 C19        -5.1106   -5.7079    1.3694 C.2       1 <0>         0.5002
     24 O2         -5.4856   -6.7185    1.9253 O.2       1 <0>        -0.4931
     25 N3         -5.0805   -5.6509    0.0232 N.am      1 <0>        -0.7343
     26 C20        -5.5008   -6.8097   -0.7686 C.3       1 <0>         0.1272
     27 C21        -5.3710   -6.4839   -2.2579 C.3       1 <0>        -0.0515
     28 C22        -5.8034   -7.6758   -3.0724 C.2       1 <0>        -0.1726
     29 C23        -5.0055   -8.6303   -3.5766 C.2       1 <0>         0.0612
     30 N4         -5.7530   -9.5505   -4.2598 N.pl3     1 <0>        -0.5948
     31 H2         -5.3980  -10.3322   -4.7113 H         1 <0>         0.4169
     32 C24        -7.0841   -9.2017   -4.2107 C.ar      1 <0>         0.0950
     33 C25        -7.1742   -8.0122   -3.4647 C.ar      1 <0>        -0.0999
     34 C26        -8.4187   -7.4181   -3.2486 C.ar      1 <0>        -0.0707
     35 C27        -9.5449   -7.9961   -3.7636 C.ar      1 <0>        -0.1448
     36 C28        -9.4614   -9.1695   -4.5002 C.ar      1 <0>        -0.0980
     37 C29        -8.2432   -9.7726   -4.7255 C.ar      1 <0>        -0.1304
     38 H3         -7.9735   -2.5157    2.1799 H         1 <0>         0.0591
     39 H4         -6.1950   -2.5761    2.2193 H         1 <0>         0.0588
     40 H5         -7.1198   -3.9721    1.6159 H         1 <0>         0.0539
     41 H6         -8.1959   -3.9271    4.0345 H         1 <0>         0.0666
     42 H7         -6.7207   -3.0246    4.4561 H         1 <0>         0.0889
     43 H8         -7.0099   -4.8735    8.2983 H         1 <0>         0.0861
     44 H9         -5.7239   -6.0617    7.9679 H         1 <0>         0.0937
     45 H10        -7.9601   -8.4687    6.3368 H         1 <0>         0.0850
     46 H11        -6.3301   -8.2434    6.7917 H         1 <0>         0.0974
     47 H12        -9.7972   -6.9372    6.9822 H         1 <0>         0.0608
     48 H13        -9.3791   -5.4188    7.8118 H         1 <0>         0.0608
     49 H14        -8.9347   -5.6514    6.1040 H         1 <0>         0.0580
     50 H15        -6.9169   -7.8632    9.1615 H         1 <0>         0.0592
     51 H16        -8.2011   -6.7101    9.5969 H         1 <0>         0.0610
     52 H17        -8.6143   -8.2337    8.7746 H         1 <0>         0.0615
     53 H18        -6.7165   -3.0324    6.3852 H         1 <0>         0.4075
     54 H19        -4.3437   -2.2680    7.4424 H         1 <0>         0.1248
     55 H20        -2.2194   -1.3898    6.5632 H         1 <0>         0.1243
     56 H21        -1.5400   -1.9371    4.2559 H         1 <0>         0.1221
     57 H22        -2.8721   -3.4793    2.9120 H         1 <0>         0.1278
     58 H23        -3.6076   -4.3569    2.0549 H         1 <0>         0.1177
     59 H24        -5.2199   -3.6314    1.8491 H         1 <0>         0.0988
     60 H25        -4.7805   -4.8427   -0.4215 H         1 <0>         0.3983
     61 H26        -6.5388   -7.0498   -0.5384 H         1 <0>         0.0691
     62 H27        -4.8681   -7.6637   -0.5270 H         1 <0>         0.0675
     63 H28        -4.3331   -6.2437   -2.4882 H         1 <0>         0.0759
     64 H29        -6.0038   -5.6299   -2.4995 H         1 <0>         0.0762
     65 H30        -3.9320   -8.6644   -3.4636 H         1 <0>         0.1702
     66 H31        -8.4914   -6.5048   -2.6768 H         1 <0>         0.1198
     67 H32       -10.5077   -7.5363   -3.5959 H         1 <0>         0.1223
     68 H33       -10.3603   -9.6141   -4.9010 H         1 <0>         0.1253
     69 H34        -8.1886  -10.6854   -5.3002 H         1 <0>         0.1197
@<TRIPOS>BOND
     1    1    2 1
     2    1   38 1
     3    1   39 1
     4    1   40 1
     5    2    3 1
     6    2   41 1
     7    2   42 1
     8    3    4 1
     9    3   21 1
    10    3    5 1
    11    5   10 1
    12    5    6 2
    13    6    7 1
    14    6   14 1
    15    7    8 1
    16    7   43 1
    17    7   44 1
    18    8    9 1
    19    8   12 1
    20    8   13 1
    21    9   10 1
    22    9   45 1
    23    9   46 1
    24   10   11 2
    25   12   47 1
    26   12   48 1
    27   12   49 1
    28   13   50 1
    29   13   51 1
    30   13   52 1
    31   14   15 1
    32   14   53 1
    33   15   20 ar
    34   15   16 ar
    35   16   17 ar
    36   16   54 1
    37   17   18 ar
    38   17   55 1
    39   18   19 ar
    40   18   56 1
    41   19   20 ar
    42   19   57 1
    43   20   21 1
    44   21   22 1
    45   22   23 1
    46   22   58 1
    47   22   59 1
    48   23   24 2
    49   23   25 am
    50   25   26 1
    51   25   60 1
    52   26   27 1
    53   26   61 1
    54   26   62 1
    55   27   28 1
    56   27   63 1
    57   27   64 1
    58   28   33 1
    59   28   29 2
    60   29   30 1
    61   29   65 1
    62   30   31 1
    63   30   32 1
    64   32   37 ar
    65   32   33 ar
    66   33   34 ar
    67   34   35 ar
    68   34   66 1
    69   35   36 ar
    70   35   67 1
    71   36   37 ar
    72   36   68 1
    73   37   69 1
@<TRIPOS>MOLECULE
ZINC20679312
   58    62     0     0     0
SMALL
USER_CHARGES
(3aR,4S,9bS)-4-(4-hydroxyphenyl)-N-phenethyl-3a,4,5,9b-tetrahydro-3H-cyclopenta[c]quinoline-8-sulfonamide
@<TRIPOS>ATOM
      1 C1         -4.8527    2.3866   -6.8581 C.ar      1 <0>        -0.1212
      2 C2         -5.7888    1.4473   -6.4679 C.ar      1 <0>        -0.1167
      3 C3         -6.5412    1.6538   -5.3269 C.ar      1 <0>        -0.1137
      4 C4         -6.3570    2.7994   -4.5754 C.ar      1 <0>        -0.0851
      5 C5         -5.4242    3.7410   -4.9682 C.ar      1 <0>        -0.1155
      6 C6         -4.6688    3.5324   -6.1069 C.ar      1 <0>        -0.1186
      7 C7         -7.1772    3.0245   -3.3314 C.3       1 <0>        -0.0857
      8 C8         -6.4507    2.4246   -2.1260 C.3       1 <0>         0.1235
      9 N1         -7.2481    2.6435   -0.9166 N.pl3     1 <0>        -1.1251
     10 S1         -6.9082    1.7948    0.4641 S.o2      1 <0>         2.6955
     11 O1         -6.8042    0.4289    0.0860 O.2       1 <0>        -0.9605
     12 O2         -7.8247    2.2439    1.4528 O.2       1 <0>        -0.9639
     13 C9         -5.3052    2.2923    1.0003 C.ar      1 <0>        -0.7327
     14 C10        -5.1705    3.3609    1.8680 C.ar      1 <0>         0.0217
     15 C11        -3.9129    3.7481    2.2860 C.ar      1 <0>        -0.2145
     16 C12        -2.7897    3.0656    1.8354 C.ar      1 <0>         0.2772
     17 C13        -2.9227    1.9932    0.9557 C.ar      1 <0>        -0.1638
     18 C14        -4.1901    1.6139    0.5528 C.ar      1 <0>         0.0194
     19 C15        -1.7415    1.2292    0.4475 C.3       1 <0>        -0.0052
     20 H1         -2.0546    0.1815    0.5667 H         1 <0>         0.0941
     21 C16        -1.4319    1.5828   -0.9878 C.2       1 <0>        -0.1614
     22 C17        -0.1362    1.5861   -1.1849 C.2       1 <0>        -0.1603
     23 C18         0.5965    1.2283    0.0937 C.3       1 <0>        -0.0854
     24 C19        -0.4378    1.5576    1.2101 C.3       1 <0>        -0.0880
     25 H2         -0.3258    1.0480    2.1785 H         1 <0>         0.1018
     26 C20        -0.3547    3.0630    1.4781 C.3       1 <0>         0.1977
     27 H3          0.5481    3.3191    2.0520 H         1 <0>         0.0990
     28 N2         -1.5220    3.4706    2.2669 N.pl3     1 <0>        -0.7480
     29 C21        -0.3449    3.8089    0.1687 C.ar      1 <0>        -0.1301
     30 C22         0.8563    4.0996   -0.4511 C.ar      1 <0>        -0.0662
     31 C23         0.8677    4.7783   -1.6542 C.ar      1 <0>        -0.1627
     32 C24        -0.3271    5.1779   -2.2352 C.ar      1 <0>         0.1559
     33 C25        -1.5309    4.8899   -1.6085 C.ar      1 <0>        -0.2142
     34 C26        -1.5371    4.2064   -0.4080 C.ar      1 <0>        -0.0599
     35 O3         -0.3184    5.8505   -3.4160 O.3       1 <0>        -0.5121
     36 H4         -4.2649    2.2253   -7.7496 H         1 <0>         0.1213
     37 H5         -5.9325    0.5521   -7.0549 H         1 <0>         0.1229
     38 H6         -7.2728    0.9201   -5.0223 H         1 <0>         0.1239
     39 H7         -5.2834    4.6381   -4.3835 H         1 <0>         0.1199
     40 H8         -3.9372    4.2662   -6.4115 H         1 <0>         0.1211
     41 H9         -7.3173    4.1043   -3.1750 H         1 <0>         0.0803
     42 H10        -8.1582    2.5404   -3.4464 H         1 <0>         0.0849
     43 H11        -6.3107    1.3448   -2.2824 H         1 <0>         0.0843
     44 H12        -5.4697    2.9087   -2.0110 H         1 <0>         0.0609
     45 H13        -7.9600    3.4809   -0.8713 H         1 <0>         0.4406
     46 H14        -6.0449    3.8901    2.2168 H         1 <0>         0.1377
     47 H15        -3.8023    4.5817    2.9637 H         1 <0>         0.1301
     48 H16        -4.3061    0.7806   -0.1243 H         1 <0>         0.1337
     49 H17        -2.1150    1.8183   -1.8172 H         1 <0>         0.1233
     50 H18         0.2683    1.8283   -2.1787 H         1 <0>         0.1247
     51 H19         0.8671    0.1623    0.0752 H         1 <0>         0.0803
     52 H20         1.5091    1.8369    0.1759 H         1 <0>         0.0751
     53 H21        -1.3880    4.0797    3.1730 H         1 <0>         0.4309
     54 H22         1.7864    3.7923    0.0038 H         1 <0>         0.1248
     55 H23         1.8061    5.0016   -2.1400 H         1 <0>         0.1249
     56 H24        -2.4623    5.1996   -2.0589 H         1 <0>         0.1193
     57 H25        -2.4739    3.9820    0.0803 H         1 <0>         0.1294
     58 H26        -1.2663    6.1669   -3.8758 H         1 <0>         0.4307
@<TRIPOS>BOND
     1    1    6 ar
     2    1    2 ar
     3    1   36 1
     4    2    3 ar
     5    2   37 1
     6    3    4 ar
     7    3   38 1
     8    4    5 ar
     9    4    7 1
    10    5    6 ar
    11    5   39 1
    12    6   40 1
    13    7    8 1
    14    7   41 1
    15    7   42 1
    16    8    9 1
    17    8   43 1
    18    8   44 1
    19    9   10 1
    20    9   45 1
    21   10   11 2
    22   10   12 2
    23   10   13 1
    24   13   18 ar
    25   13   14 ar
    26   14   15 ar
    27   14   46 1
    28   15   16 ar
    29   15   47 1
    30   16   28 1
    31   16   17 ar
    32   17   18 ar
    33   17   19 1
    34   18   48 1
    35   19   20 1
    36   19   24 1
    37   19   21 1
    38   21   22 2
    39   21   49 1
    40   22   23 1
    41   22   50 1
    42   23   24 1
    43   23   51 1
    44   23   52 1
    45   24   25 1
    46   24   26 1
    47   26   27 1
    48   26   28 1
    49   26   29 1
    50   28   53 1
    51   29   34 ar
    52   29   30 ar
    53   30   31 ar
    54   30   54 1
    55   31   32 ar
    56   31   55 1
    57   32   33 ar
    58   32   35 1
    59   33   34 ar
    60   33   56 1
    61   34   57 1
    62   35   58 1
@<TRIPOS>MOLECULE
ZINC39884976
   49    52     0     0     0
SMALL
USER_CHARGES

@<TRIPOS>ATOM
      1 C1         -0.0169    1.3933    0.0097 C.ar      1 <0>        -0.0776
      2 C2          1.1695    2.0957    0.0021 C.ar      1 <0>        -0.1078
      3 C3          2.3783    1.4195   -0.0130 C.ar      1 <0>        -0.0189
      4 C4          2.4042    0.0345   -0.0212 C.ar      1 <0>        -0.1085
      5 C5          1.2251   -0.6801   -0.0142 C.ar      1 <0>        -0.0730
      6 C6          0.0021   -0.0041    0.0020 C.ar      1 <0>        -0.0364
      7 C7         -1.2634   -0.7622    0.0105 C.2       1 <0>         0.0878
      8 C8         -1.3780   -2.1367    0.0098 C.2       1 <0>        -0.2025
      9 C9         -2.7400   -2.4331    0.0195 C.2       1 <0>        -0.0996
     10 C10        -3.4142   -1.2200    0.0259 C.2       1 <0>        -0.0572
     11 O1         -2.4970   -0.2287    0.0261 O.3       1 <0>        -0.1499
     12 C11        -4.8080   -1.0525    0.0364 C.2       1 <0>         0.1163
     13 C12        -5.3538    0.2242    0.0419 C.2       1 <0>        -0.1424
     14 C13        -4.4949    1.3700    0.0368 C.1       1 <0>         0.2358
     15 N1         -3.8136    2.2790    0.0329 N.1       1 <0>        -0.3869
     16 C14        -6.8103    0.3992    0.0528 C.2       1 <0>         0.5751
     17 O2         -7.5403   -0.5747    0.0571 O.2       1 <0>        -0.4921
     18 N2         -7.3401    1.6385    0.0582 N.am      1 <0>        -0.6151
     19 C15        -8.7153    1.8038    0.0685 C.2       1 <0>         0.0361
     20 C16        -9.4312    2.9911    0.0695 C.2       1 <0>        -0.2332
     21 C17       -10.8804    2.8925    0.0817 C.2       1 <0>        -0.0616
     22 C18       -11.3479    1.6257    0.0910 C.2       1 <0>        -0.2230
     23 S1         -9.8984    0.6121    0.0753 S.3       1 <0>         0.2947
     24 C19       -12.7824    1.1962    0.1060 C.3       1 <0>        -0.0347
     25 C20       -13.6445    2.4080    0.4898 C.3       1 <0>        -0.1145
     26 C21       -13.2136    3.6103   -0.3551 C.3       1 <0>        -0.1195
     27 C22       -11.8262    4.0845    0.0838 C.3       1 <0>        -0.0607
     28 C23        -8.7541    4.2913    0.0593 C.2       1 <0>         0.5835
     29 O3         -8.4817    4.8272   -0.9991 O.2       1 <0>        -0.5330
     30 N3         -8.4333    4.8932    1.2217 N.am      1 <0>        -0.8480
     31 Cl1         3.8675    2.3116   -0.0225 Cl        1 <0>        -0.0568
     32 H1         -0.9586    1.9217    0.0260 H         1 <0>         0.1405
     33 H2          1.1562    3.1757    0.0077 H         1 <0>         0.1422
     34 H3          3.3500   -0.4867   -0.0334 H         1 <0>         0.1450
     35 H4          1.2466   -1.7599   -0.0209 H         1 <0>         0.1429
     36 H5         -0.5660   -2.8487    0.0027 H         1 <0>         0.1663
     37 H6         -3.1849   -3.4172    0.0214 H         1 <0>         0.1731
     38 H7         -5.4558   -1.9167    0.0402 H         1 <0>         0.1919
     39 H8         -6.7583    2.4146    0.0548 H         1 <0>         0.4183
     40 H9        -13.0696    0.8396   -0.8831 H         1 <0>         0.0829
     41 H10       -12.9202    0.4007    0.8383 H         1 <0>         0.0818
     42 H11       -14.6940    2.1847    0.2984 H         1 <0>         0.0740
     43 H12       -13.5046    2.6355    1.5466 H         1 <0>         0.0680
     44 H13       -13.1823    3.3219   -1.4058 H         1 <0>         0.0677
     45 H14       -13.9311    4.4204   -0.2245 H         1 <0>         0.0702
     46 H15       -11.8833    4.5042    1.0881 H         1 <0>         0.0771
     47 H16       -11.4621    4.8413   -0.6111 H         1 <0>         0.0753
     48 H17        -8.6505    4.4661    2.0651 H         1 <0>         0.4034
     49 H18        -7.9853    5.7535    1.2149 H         1 <0>         0.4032
@<TRIPOS>BOND
     1    1    6 ar
     2    1    2 ar
     3    1   32 1
     4    2    3 ar
     5    2   33 1
     6    3    4 ar
     7    3   31 1
     8    4    5 ar
     9    4   34 1
    10    5    6 ar
    11    5   35 1
    12    6    7 1
    13    7   11 1
    14    7    8 2
    15    8    9 1
    16    8   36 1
    17    9   10 2
    18    9   37 1
    19   10   11 1
    20   10   12 1
    21   12   13 2
    22   12   38 1
    23   13   14 1
    24   13   16 1
    25   14   15 3
    26   16   17 2
    27   16   18 am
    28   18   19 1
    29   18   39 1
    30   19   23 1
    31   19   20 2
    32   20   21 1
    33   20   28 1
    34   21   27 1
    35   21   22 2
    36   22   23 1
    37   22   24 1
    38   24   25 1
    39   24   40 1
    40   24   41 1
    41   25   26 1
    42   25   42 1
    43   25   43 1
    44   26   27 1
    45   26   44 1
    46   26   45 1
    47   27   46 1
    48   27   47 1
    49   28   29 2
    50   28   30 am
    51   30   48 1
    52   30   49 1
@<TRIPOS>MOLECULE
ZINC08915505
   49    52     0     0     0
SMALL
USER_CHARGES

@<TRIPOS>ATOM
      1 C1          3.2999    1.4757    3.8757 C.ar      1 <0>        -0.1509
      2 C2          3.1545    0.1144    3.6822 C.ar      1 <0>        -0.0821
      3 C3          3.4716   -0.4488    2.4614 C.ar      1 <0>        -0.1959
      4 C4          3.9365    0.3530    1.4287 C.ar      1 <0>         0.1193
      5 C5          4.0815    1.7189    1.6255 C.ar      1 <0>        -0.1432
      6 C6          3.7630    2.2769    2.8483 C.ar      1 <0>        -0.0815
      7 O1          4.2495   -0.1985    0.2269 O.3       1 <0>        -0.2558
      8 C7          4.1558   -1.5482    0.1006 C.ar      1 <0>         0.0939
      9 C8          2.9163   -2.1448   -0.0831 C.ar      1 <0>        -0.1173
     10 C9          2.8238   -3.5168   -0.2117 C.ar      1 <0>        -0.0957
     11 C10         3.9650   -4.2961   -0.1571 C.ar      1 <0>        -0.1088
     12 C11         5.2009   -3.7044    0.0262 C.ar      1 <0>        -0.1011
     13 C12         5.2996   -2.3318    0.1492 C.ar      1 <0>        -0.0934
     14 C13         6.4423   -4.5568    0.0857 C.3       1 <0>         0.2191
     15 H1          7.2263   -4.0319    0.6314 H         1 <0>         0.1354
     16 C14         6.9228   -4.8798   -1.3373 C.3       1 <0>        -0.1716
     17 H2          7.1734   -3.9559   -1.8586 H         1 <0>         0.1353
     18 C15         8.1646   -5.7685   -1.2381 C.3       1 <0>         0.3391
     19 N1          7.9261   -6.8832   -0.3284 N.pl3     1 <0>        -0.6236
     20 C16         7.0019   -6.8897    0.5716 C.cat     1 <0>         0.7119
     21 N2          6.1403   -5.8346    0.7493 N.pl3     1 <0>        -0.6588
     22 O2          6.8773   -7.9729    1.3692 O.3       1 <0>        -0.4549
     23 C17         8.5066   -6.3143   -2.6260 C.3       1 <0>         0.4135
     24 F1          8.6350   -5.2513   -3.5264 F         1 <0>        -0.1686
     25 F2          9.7119   -7.0219   -2.5648 F         1 <0>        -0.1773
     26 F3          7.4855   -7.1687   -3.0557 F         1 <0>        -0.1941
     27 O3          9.2624   -4.9921   -0.7544 O.3       1 <0>        -0.7514
     28 C18         5.8362   -5.6067   -2.0870 C.2       1 <0>         0.4450
     29 O4          5.4317   -6.6780   -1.6826 O.2       1 <0>        -0.4512
     30 C19         5.2884   -5.0420   -3.2599 C.2       1 <0>        -0.3011
     31 C20         4.2279   -5.4949   -4.0392 C.2       1 <0>        -0.0472
     32 C21         3.9224   -4.7248   -5.1324 C.2       1 <0>        -0.1950
     33 C22         4.6511   -3.6053   -5.3767 C.2       1 <0>        -0.2137
     34 S1          5.7698   -3.5590   -4.1242 S.3       1 <0>         0.2522
     35 H3          3.0472    1.9147    4.8295 H         1 <0>         0.1260
     36 H4          2.7929   -0.5093    4.4864 H         1 <0>         0.1260
     37 H5          3.3581   -1.5122    2.3109 H         1 <0>         0.1274
     38 H6          4.4435    2.3450    0.8234 H         1 <0>         0.1338
     39 H7          3.8754    3.3400    3.0019 H         1 <0>         0.1325
     40 H8          2.0247   -1.5367   -0.1250 H         1 <0>         0.1362
     41 H9          1.8594   -3.9815   -0.3546 H         1 <0>         0.1365
     42 H10         3.8904   -5.3688   -0.2575 H         1 <0>         0.1328
     43 H11         6.2659   -1.8697    0.2879 H         1 <0>         0.1444
     44 H12         5.3478   -5.9303    1.3002 H         1 <0>         0.4367
     45 H13         7.5186   -8.6729    1.1849 H         1 <0>         0.4394
     46 H14         3.6810   -6.3947   -3.7989 H         1 <0>         0.1478
     47 H15         3.1132   -5.0054   -5.7904 H         1 <0>         0.1394
     48 H16         4.5349   -2.9025   -6.1884 H         1 <0>         0.1920
     49 H17         8.4952   -7.6650   -0.4047 H         1 <0>         0.4187
@<TRIPOS>BOND
     1    1    6 ar
     2    1    2 ar
     3    1   35 1
     4    2    3 ar
     5    2   36 1
     6    3    4 ar
     7    3   37 1
     8    4    5 ar
     9    4    7 1
    10    5    6 ar
    11    5   38 1
    12    6   39 1
    13    7    8 1
    14    8   13 ar
    15    8    9 ar
    16    9   10 ar
    17    9   40 1
    18   10   11 ar
    19   10   41 1
    20   11   12 ar
    21   11   42 1
    22   12   13 ar
    23   12   14 1
    24   13   43 1
    25   14   15 1
    26   14   21 1
    27   14   16 1
    28   16   17 1
    29   16   18 1
    30   16   28 1
    31   18   19 1
    32   18   23 1
    33   18   27 1
    34   19   20 2
    35   19   49 1
    36   20   21 1
    37   20   22 1
    38   21   44 1
    39   22   45 1
    40   23   24 1
    41   23   25 1
    42   23   26 1
    43   28   29 2
    44   28   30 1
    45   30   34 1
    46   30   31 2
    47   31   32 1
    48   31   46 1
    49   32   33 2
    50   32   47 1
    51   33   34 1
    52   33   48 1
@<TRIPOS>MOLECULE
ZINC12296264
   76    80     0     0     0
SMALL
USER_CHARGES
N-[2-(3,4-dihydroxyphenyl)ethyl]-2-[[(8S,9R,10R,13S,14S,17S)-17-hydroxy-10,13-dimethyl-1,2,6,7,8,9,11,12,14,15,16,17-dodecahydrocyclopenta[a]phenanthren-3-ylidene]amino]oxy-acetamide
@<TRIPOS>ATOM
      1 C1         -0.3054    3.9657    0.4047 C.3       1 <0>        -0.1349
      2 C2         -1.3840    2.9235    0.7202 C.3       1 <0>        -0.0450
      3 C3         -2.3953    3.4669    1.6992 C.3       1 <0>        -0.1026
      4 C4         -2.0164    3.0785    3.1353 C.3       1 <0>        -0.1110
      5 C5         -0.5069    2.9230    3.2802 C.3       1 <0>        -0.0686
      6 H1         -0.0036    3.8215    2.9232 H         1 <0>         0.0819
      7 C6         -0.0276    1.7081    2.4830 C.3       1 <0>        -0.0654
      8 H2         -0.2647    0.8170    3.0976 H         1 <0>         0.0631
      9 C7         -0.7932    1.5828    1.2009 C.3       1 <0>        -0.0750
     10 H3         -1.6320    0.8765    1.3644 H         1 <0>         0.0663
     11 C8         -0.0287    1.0902   -0.0324 C.3       1 <0>        -0.1163
     12 C9         -0.8414    1.6331   -1.2378 C.3       1 <0>        -0.1586
     13 C10        -2.0039    2.4592   -0.6230 C.3       1 <0>         0.0989
     14 H4         -2.8760    1.8406   -0.4436 H         1 <0>         0.0622
     15 O1         -2.3152    3.5870   -1.4379 O.3       1 <0>        -0.5572
     16 C11         1.4822    1.7266    2.3095 C.3       1 <0>        -0.1059
     17 C12         2.1561    2.1731    3.6095 C.3       1 <0>        -0.0915
     18 C13         1.2017    1.9797    4.7646 C.2       1 <0>        -0.0411
     19 C14         1.5210    1.1723    5.7637 C.2       1 <0>        -0.1804
     20 C15         0.6124    0.9640    6.8965 C.2       1 <0>         0.1833
     21 N1          0.9745    0.2079    7.8854 N.2       1 <0>        -0.3506
     22 O2          2.2457   -0.4157    7.8713 O.3       1 <0>        -0.2160
     23 C16         2.5118   -1.2189    9.0228 C.3       1 <0>         0.0590
     24 C17         3.8838   -1.8307    8.9024 C.2       1 <0>         0.5167
     25 O3          4.5664   -1.6014    7.9265 O.2       1 <0>        -0.5173
     26 N2          4.3522   -2.6325    9.8791 N.am      1 <0>        -0.7295
     27 C18         5.6859   -3.2273    9.7620 C.3       1 <0>         0.1251
     28 C19         5.9709   -4.0872   10.9950 C.3       1 <0>        -0.0901
     29 C20         7.3429   -4.6990   10.8745 C.ar      1 <0>        -0.0765
     30 C21         8.4437   -4.0277   11.3736 C.ar      1 <0>        -0.1042
     31 C22         9.7043   -4.5847   11.2655 C.ar      1 <0>        -0.1273
     32 C23         9.8666   -5.8186   10.6564 C.ar      1 <0>         0.0806
     33 C24         8.7586   -6.4945   10.1545 C.ar      1 <0>         0.0832
     34 C25         7.4973   -5.9328   10.2703 C.ar      1 <0>        -0.1238
     35 O4          8.9129   -7.7058    9.5558 O.3       1 <0>        -0.4872
     36 O5         11.1060   -6.3681   10.5497 O.3       1 <0>        -0.4879
     37 C26        -0.7418    1.6247    6.9125 C.3       1 <0>        -0.0668
     38 C27        -1.1830    1.9226    5.4778 C.3       1 <0>        -0.1047
     39 C28        -0.1116    2.7265    4.7503 C.3       1 <0>        -0.0273
     40 C29         0.0690    4.0950    5.4100 C.3       1 <0>        -0.1388
     41 H5         -0.7346    4.7590   -0.2072 H         1 <0>         0.0651
     42 H6          0.0739    4.3890    1.3348 H         1 <0>         0.0553
     43 H7          0.5117    3.4901   -0.1378 H         1 <0>         0.0542
     44 H8         -2.4434    4.5589    1.6184 H         1 <0>         0.0649
     45 H9         -3.3892    3.0651    1.4667 H         1 <0>         0.0602
     46 H10        -2.3751    3.8500    3.8203 H         1 <0>         0.0652
     47 H11        -2.5053    2.1339    3.3887 H         1 <0>         0.0629
     48 H12        -0.0181    0.0003   -0.0525 H         1 <0>         0.0634
     49 H13         0.9825    1.4835   -0.0473 H         1 <0>         0.0737
     50 H14        -0.2144    2.2606   -1.8646 H         1 <0>         0.0750
     51 H15        -1.2425    0.8014   -1.8169 H         1 <0>         0.0617
     52 H16        -2.6109    3.3583   -2.3297 H         1 <0>         0.3750
     53 H17         1.8290    0.7234    2.0621 H         1 <0>         0.0648
     54 H18         1.7600    2.4128    1.5146 H         1 <0>         0.0698
     55 H19         3.0501    1.5718    3.7739 H         1 <0>         0.0731
     56 H20         2.4304    3.2235    3.5315 H         1 <0>         0.0786
     57 H21         2.4702    0.6554    5.7435 H         1 <0>         0.1275
     58 H22         2.4684   -0.5974    9.9172 H         1 <0>         0.0869
     59 H23         1.7660   -2.0106    9.0940 H         1 <0>         0.0868
     60 H24         3.8063   -2.8159   10.6597 H         1 <0>         0.4031
     61 H25         5.7294   -3.8488    8.8676 H         1 <0>         0.0726
     62 H26         6.4318   -2.4356    9.6909 H         1 <0>         0.0730
     63 H27         5.9275   -3.4657   11.8894 H         1 <0>         0.0848
     64 H28         5.2251   -4.8789   11.0661 H         1 <0>         0.0833
     65 H29         8.3185   -3.0659   11.8486 H         1 <0>         0.1319
     66 H30        10.5626   -4.0582   11.6562 H         1 <0>         0.1356
     67 H31         6.6352   -6.4570    9.8850 H         1 <0>         0.1344
     68 H32         8.8478   -8.4557   10.1628 H         1 <0>         0.3882
     69 H33        11.3545   -6.9266   11.2990 H         1 <0>         0.3883
     70 H34        -1.4646    0.9450    7.3755 H         1 <0>         0.0886
     71 H35        -0.7032    2.5409    7.4980 H         1 <0>         0.0952
     72 H36        -1.3551    0.9805    4.9512 H         1 <0>         0.0713
     73 H37        -2.1172    2.4890    5.4996 H         1 <0>         0.0849
     74 H38        -0.8666    4.6516    5.3541 H         1 <0>         0.0642
     75 H39         0.3499    3.9606    6.4546 H         1 <0>         0.0583
     76 H40         0.8522    4.6479    4.8914 H         1 <0>         0.0592
@<TRIPOS>BOND
     1    1    2 1
     2    1   41 1
     3    1   42 1
     4    1   43 1
     5    2    9 1
     6    2   13 1
     7    2    3 1
     8    3    4 1
     9    3   44 1
    10    3   45 1
    11    4    5 1
    12    4   46 1
    13    4   47 1
    14    5    6 1
    15    5   39 1
    16    5    7 1
    17    7    8 1
    18    7    9 1
    19    7   16 1
    20    9   10 1
    21    9   11 1
    22   11   12 1
    23   11   48 1
    24   11   49 1
    25   12   13 1
    26   12   50 1
    27   12   51 1
    28   13   14 1
    29   13   15 1
    30   15   52 1
    31   16   17 1
    32   16   53 1
    33   16   54 1
    34   17   18 1
    35   17   55 1
    36   17   56 1
    37   18   39 1
    38   18   19 2
    39   19   20 1
    40   19   57 1
    41   20   21 2
    42   20   37 1
    43   21   22 1
    44   22   23 1
    45   23   24 1
    46   23   58 1
    47   23   59 1
    48   24   25 2
    49   24   26 am
    50   26   27 1
    51   26   60 1
    52   27   28 1
    53   27   61 1
    54   27   62 1
    55   28   29 1
    56   28   63 1
    57   28   64 1
    58   29   34 ar
    59   29   30 ar
    60   30   31 ar
    61   30   65 1
    62   31   32 ar
    63   31   66 1
    64   32   33 ar
    65   32   36 1
    66   33   34 ar
    67   33   35 1
    68   34   67 1
    69   35   68 1
    70   36   69 1
    71   37   38 1
    72   37   70 1
    73   37   71 1
    74   38   39 1
    75   38   72 1
    76   38   73 1
    77   39   40 1
    78   40   74 1
    79   40   75 1
    80   40   76 1
@<TRIPOS>MOLECULE
ZINC15498335
   52    54     0     0     0
SMALL
USER_CHARGES
4-[[(E)-3-[4-[[3-(trifluoromethyl)phenyl]sulfamoyl]phenyl]prop-2-enoyl]amino]benzamide
@<TRIPOS>ATOM
      1 C1          0.7159    2.0933    0.0759 C.ar      1 <0>        -0.0940
      2 C2         -0.5590    1.5573    0.0642 C.ar      1 <0>        -0.0788
      3 C3         -1.6612    2.3887   -0.0115 C.ar      1 <0>        -0.1644
      4 C4         -1.4926    3.7586   -0.0643 C.ar      1 <0>        -0.0804
      5 C5         -0.2136    4.3002   -0.0528 C.ar      1 <0>         0.1428
      6 C6          0.8918    3.4616    0.0176 C.ar      1 <0>        -0.1222
      7 N1         -0.0393    5.6847   -0.1124 N.pl3     1 <0>        -1.0547
      8 S1          1.0985    6.3331   -1.1259 S.o2      1 <0>         2.6895
      9 O1          1.0153    7.7442   -0.9802 O.2       1 <0>        -0.9415
     10 O2          2.3025    5.6135   -0.8983 O.2       1 <0>        -0.9428
     11 C7          0.5968    5.9667   -2.7748 C.ar      1 <0>        -0.6710
     12 C8          1.0260    4.7991   -3.3815 C.ar      1 <0>        -0.0165
     13 C9          0.6338    4.5029   -4.6698 C.ar      1 <0>        -0.1226
     14 C10        -0.1908    5.3912   -5.3674 C.ar      1 <0>        -0.0156
     15 C11        -0.6159    6.5714   -4.7493 C.ar      1 <0>        -0.1134
     16 C12        -0.2197    6.8507   -3.4584 C.ar      1 <0>        -0.0173
     17 C13        -0.6087    5.0858   -6.7453 C.2       1 <0>        -0.0221
     18 C14        -0.1968    3.9468   -7.3380 C.2       1 <0>        -0.1979
     19 C15        -0.6124    3.6430   -8.7082 C.2       1 <0>         0.5476
     20 O3         -1.3297    4.4185   -9.3126 O.2       1 <0>        -0.5128
     21 N2         -0.2007    2.5046   -9.3006 N.am      1 <0>        -0.6683
     22 C16        -0.6833    2.1616  -10.5616 C.ar      1 <0>         0.1752
     23 C17         0.1390    1.4889  -11.4604 C.ar      1 <0>        -0.1538
     24 C18        -0.3367    1.1435  -12.7051 C.ar      1 <0>        -0.0637
     25 C19        -1.6434    1.4793  -13.0700 C.ar      1 <0>        -0.1571
     26 C20        -2.4648    2.1600  -12.1671 C.ar      1 <0>        -0.0354
     27 C21        -1.9850    2.4974  -10.9218 C.ar      1 <0>        -0.1295
     28 C22        -2.1548    1.1155  -14.4057 C.2       1 <0>         0.5644
     29 O4         -3.2919    1.4079  -14.7217 O.2       1 <0>        -0.5391
     30 N3         -1.3614    0.4592  -15.2753 N.am      1 <0>        -0.8517
     31 C23        -3.0483    1.7998   -0.0306 C.3       1 <0>         0.5087
     32 F1         -2.9637    0.4050    0.0372 F         1 <0>        -0.1743
     33 F2         -3.7727    2.2770    1.0670 F         1 <0>        -0.1743
     34 F3         -3.6961    2.1707   -1.2138 F         1 <0>        -0.1749
     35 H1          1.5748    1.4409    0.1303 H         1 <0>         0.1462
     36 H2         -0.6938    0.4867    0.1099 H         1 <0>         0.1441
     37 H3         -2.3540    4.4077   -0.1190 H         1 <0>         0.1411
     38 H4          1.8877    3.8795    0.0263 H         1 <0>         0.1686
     39 H5         -0.5847    6.2664    0.4399 H         1 <0>         0.4317
     40 H6          1.6667    4.1164   -2.8431 H         1 <0>         0.1449
     41 H7          0.9664    3.5896   -5.1406 H         1 <0>         0.1396
     42 H8         -1.2524    7.2625   -5.2818 H         1 <0>         0.1428
     43 H9         -0.5471    7.7617   -2.9797 H         1 <0>         0.1468
     44 H10        -1.2453    5.7739   -7.2817 H         1 <0>         0.1457
     45 H11         0.4397    3.2586   -6.8017 H         1 <0>         0.1376
     46 H12         0.4316    1.9240   -8.8489 H         1 <0>         0.4156
     47 H13         1.1501    1.2336  -11.1795 H         1 <0>         0.1344
     48 H14         0.3005    0.6172  -13.4005 H         1 <0>         0.1318
     49 H15        -3.4751    2.4205  -12.4459 H         1 <0>         0.1417
     50 H16        -2.6193    3.0231  -10.2235 H         1 <0>         0.1423
     51 H17        -0.4542    0.2259  -15.0232 H         1 <0>         0.4004
     52 H18        -1.6976    0.2201  -16.1532 H         1 <0>         0.4063
@<TRIPOS>BOND
     1    1    6 ar
     2    1    2 ar
     3    1   35 1
     4    2    3 ar
     5    2   36 1
     6    3    4 ar
     7    3   31 1
     8    4    5 ar
     9    4   37 1
    10    5    6 ar
    11    5    7 1
    12    6   38 1
    13    7    8 1
    14    7   39 1
    15    8    9 2
    16    8   10 2
    17    8   11 1
    18   11   16 ar
    19   11   12 ar
    20   12   13 ar
    21   12   40 1
    22   13   14 ar
    23   13   41 1
    24   14   15 ar
    25   14   17 1
    26   15   16 ar
    27   15   42 1
    28   16   43 1
    29   17   18 2
    30   17   44 1
    31   18   19 1
    32   18   45 1
    33   19   20 2
    34   19   21 am
    35   21   22 1
    36   21   46 1
    37   22   27 ar
    38   22   23 ar
    39   23   24 ar
    40   23   47 1
    41   24   25 ar
    42   24   48 1
    43   25   26 ar
    44   25   28 1
    45   26   27 ar
    46   26   49 1
    47   27   50 1
    48   28   29 2
    49   28   30 am
    50   30   51 1
    51   30   52 1
    52   31   32 1
    53   31   33 1
    54   31   34 1
@<TRIPOS>MOLECULE
ZINC20917945
   49    51     0     0     0
SMALL
USER_CHARGES
3-[[4-amino-5-((N'E)-N'-(p-tolylmethylene)hydrazino)-1,2,4-triazol-3-yl]sulfanyl]-N-(2,5-dichlorophenyl)propanamide
@<TRIPOS>ATOM
      1 C1         -6.2827    6.1703   -0.0026 C.3       1 <0>        -0.1222
      2 C2         -4.9672    5.4351   -0.0136 C.ar      1 <0>        -0.0686
      3 C3         -3.7807    6.1471   -0.0251 C.ar      1 <0>        -0.1261
      4 C4         -2.5730    5.4811   -0.0352 C.ar      1 <0>        -0.0866
      5 C5         -2.5495    4.0841   -0.0337 C.ar      1 <0>        -0.0592
      6 C6         -3.7516    3.3719   -0.0278 C.ar      1 <0>        -0.0744
      7 C7         -4.9517    4.0515   -0.0125 C.ar      1 <0>        -0.1256
      8 C8         -1.2626    3.3649   -0.0443 C.2       1 <0>         0.0961
      9 N1         -1.2444    2.0664   -0.0429 N.2       1 <0>        -0.1935
     10 N2         -0.0214    1.3830   -0.0530 N.pl3     1 <0>        -0.5619
     11 C9         -0.0019   -0.0043   -0.0515 C.2       1 <0>         0.4879
     12 N3         -1.0514   -0.7897   -0.0303 N.2       1 <0>        -0.3129
     13 N4         -0.5998   -2.1159   -0.0398 N.2       1 <0>        -0.2943
     14 C10         0.7117   -2.0973   -0.0581 C.2       1 <0>         0.1882
     15 N5          1.1153   -0.7924   -0.0659 N.pl3     1 <0>        -0.2653
     16 N6          2.4082   -0.3521   -0.0847 N.3       1 <0>        -0.7777
     17 S1          1.7673   -3.5080   -0.0701 S.3       1 <0>        -0.0068
     18 C11         0.6213   -4.9139   -0.0521 C.3       1 <0>        -0.0876
     19 C12         1.4170   -6.2207   -0.0607 C.3       1 <0>        -0.1259
     20 C13         0.4649   -7.3887   -0.0457 C.2       1 <0>         0.5253
     21 O1         -0.7323   -7.1951   -0.0297 O.2       1 <0>        -0.5076
     22 N7          0.9437   -8.6486   -0.0501 N.am      1 <0>        -0.6834
     23 C14         0.0641   -9.7320    0.0585 C.ar      1 <0>         0.1755
     24 C15        -1.1960   -9.6656   -0.5205 C.ar      1 <0>        -0.1067
     25 C16        -2.0603  -10.7393   -0.4161 C.ar      1 <0>        -0.0121
     26 C17        -1.6747  -11.8753    0.2743 C.ar      1 <0>        -0.1147
     27 C18        -0.4226  -11.9423    0.8563 C.ar      1 <0>        -0.0780
     28 C19         0.4482  -10.8739    0.7508 C.ar      1 <0>        -0.0636
     29 Cl1         2.0204  -10.9590    1.4821 Cl        1 <0>        -0.0550
     30 Cl2        -3.6335  -10.6602   -1.1457 Cl        1 <0>        -0.0517
     31 H1         -6.0968    7.2545   -0.0052 H         1 <0>         0.0670
     32 H2         -6.8477    5.8973    0.9008 H         1 <0>         0.0729
     33 H3         -6.8637    5.8957   -0.8954 H         1 <0>         0.0729
     34 H4         -3.8004    7.2269   -0.0266 H         1 <0>         0.1268
     35 H5         -1.6477    6.0380   -0.0445 H         1 <0>         0.1275
     36 H6         -3.7410    2.2920   -0.0315 H         1 <0>         0.1360
     37 H7         -5.8816    3.5023   -0.0038 H         1 <0>         0.1267
     38 H8         -0.3178    3.9282   -0.0534 H         1 <0>         0.1238
     39 H9          0.9234    1.9463   -0.0621 H         1 <0>         0.4084
     40 H10         3.2358   -1.0766   -0.0951 H         1 <0>         0.4478
     41 H11         2.6217    0.7270   -0.0894 H         1 <0>         0.4365
     42 H12        -0.0000   -4.8689    0.8545 H         1 <0>         0.1096
     43 H13        -0.0245   -4.8720   -0.9416 H         1 <0>         0.1097
     44 H14         2.0383   -6.2657   -0.9673 H         1 <0>         0.1136
     45 H15         2.0628   -6.2626    0.8288 H         1 <0>         0.1139
     46 H16         2.0257   -8.8255   -0.1390 H         1 <0>         0.4413
     47 H17        -1.4992   -8.7776   -1.0551 H         1 <0>         0.1602
     48 H18        -2.3536  -12.7110    0.3587 H         1 <0>         0.1455
     49 H19        -0.1246  -12.8300    1.3943 H         1 <0>         0.1482
@<TRIPOS>BOND
     1    1    2 1
     2    1   31 1
     3    1   32 1
     4    1   33 1
     5    2    7 ar
     6    2    3 ar
     7    3    4 ar
     8    3   34 1
     9    4    5 ar
    10    4   35 1
    11    5    6 ar
    12    5    8 1
    13    6    7 ar
    14    6   36 1
    15    7   37 1
    16    8    9 2
    17    8   38 1
    18    9   10 1
    19   10   11 1
    20   10   39 1
    21   11   15 1
    22   11   12 2
    23   12   13 1
    24   13   14 2
    25   14   15 1
    26   14   17 1
    27   15   16 1
    28   16   40 1
    29   16   41 1
    30   17   18 1
    31   18   19 1
    32   18   42 1
    33   18   43 1
    34   19   20 1
    35   19   44 1
    36   19   45 1
    37   20   21 2
    38   20   22 am
    39   22   23 1
    40   22   46 1
    41   23   28 ar
    42   23   24 ar
    43   24   25 ar
    44   24   47 1
    45   25   26 ar
    46   25   30 1
    47   26   27 ar
    48   26   48 1
    49   27   28 ar
    50   27   49 1
    51   28   29 1
@<TRIPOS>MOLECULE
ZINC36556557
   67    69     0     0     0
SMALL
USER_CHARGES

@<TRIPOS>ATOM
      1 C1         -0.1794    1.3396   -0.4641 C.3       1 <0>        -0.1135
      2 C2         -0.4232   -0.1429   -0.5817 C.ar      1 <0>        -0.0670
      3 C3         -0.6853   -0.7045   -1.8176 C.ar      1 <0>        -0.1208
      4 C4         -0.9088   -2.0642   -1.9254 C.ar      1 <0>        -0.1158
      5 C5         -0.8698   -2.8628   -0.7975 C.ar      1 <0>        -0.1250
      6 C6         -0.6068   -2.3015    0.4379 C.ar      1 <0>        -0.1033
      7 C7         -0.3790   -0.9421    0.5451 C.ar      1 <0>        -0.0658
      8 C8         -0.0871   -0.3309    1.8914 C.3       1 <0>        -0.1065
      9 C9         -1.3651    0.1960    2.4916 C.2       1 <0>         0.5301
     10 O1         -2.4100    0.0860    1.8859 O.2       1 <0>        -0.5272
     11 N1         -1.3468    0.7894    3.7016 N.am      1 <0>        -0.5841
     12 C10        -0.0845    0.9222    4.4333 C.3       1 <0>         0.2053
     13 C11         0.7010    2.0802    3.8737 C.2       1 <0>        -0.0439
     14 C12         0.7874    3.3078    4.4168 C.2       1 <0>        -0.1548
     15 C13         1.6206    4.0731    3.5689 C.2       1 <0>        -0.2245
     16 C14         1.9936    3.2674    2.5584 C.2       1 <0>        -0.0146
     17 O2          1.4382    2.0599    2.7513 O.3       1 <0>        -0.1811
     18 C15         2.8874    3.6527    1.4079 C.3       1 <0>        -0.0751
     19 C16        -2.5891    1.3016    4.2851 C.3       1 <0>         0.1870
     20 H1         -3.1473    1.8507    3.5268 H         1 <0>         0.1197
     21 C17        -3.4215    0.1493    4.7855 C.ar      1 <0>        -0.1662
     22 C18        -2.8333   -0.8547    5.5400 C.ar      1 <0>         0.1622
     23 C19        -3.5993   -1.9150    6.0005 C.ar      1 <0>        -0.1834
     24 C20        -4.9534   -1.9711    5.7070 C.ar      1 <0>         0.1499
     25 C21        -5.5418   -0.9666    4.9534 C.ar      1 <0>        -0.1808
     26 C22        -4.7767    0.0959    4.4965 C.ar      1 <0>         0.1623
     27 O3         -5.3542    1.0827    3.7619 O.3       1 <0>        -0.4939
     28 O4         -5.7039   -3.0106    6.1576 O.3       1 <0>        -0.4930
     29 O5         -1.5063   -0.7997    5.8276 O.3       1 <0>        -0.4833
     30 C23        -2.2629    2.2216    5.4332 C.2       1 <0>         0.5138
     31 O6         -1.1325    2.6376    5.5746 O.2       1 <0>        -0.5090
     32 N2         -3.2274    2.5822    6.3028 N.am      1 <0>        -0.7113
     33 C24        -2.9425    3.5740    7.3427 C.3       1 <0>         0.1694
     34 C25        -2.5701    4.9061    6.6887 C.3       1 <0>        -0.1631
     35 C26        -4.1824    3.7650    8.2186 C.3       1 <0>        -0.1575
     36 C27        -1.7777    3.0868    8.2069 C.3       1 <0>        -0.1636
     37 H2          0.8846    1.5435   -0.5840 H         1 <0>         0.0696
     38 H3         -0.7392    1.8624   -1.2396 H         1 <0>         0.0658
     39 H4         -0.5074    1.6851    0.5163 H         1 <0>         0.0618
     40 H5         -0.7158   -0.0807   -2.6987 H         1 <0>         0.1206
     41 H6         -1.1143   -2.5027   -2.8908 H         1 <0>         0.1207
     42 H7         -1.0451   -3.9251   -0.8817 H         1 <0>         0.1206
     43 H8         -0.5767   -2.9253    1.3190 H         1 <0>         0.1179
     44 H9          0.3383   -1.0883    2.5497 H         1 <0>         0.1000
     45 H10         0.6230    0.4875    1.7726 H         1 <0>         0.1181
     46 H11        -0.2931    1.1006    5.4881 H         1 <0>         0.1372
     47 H12         0.4950    0.0051    4.3275 H         1 <0>         0.0775
     48 H13         0.3111    3.6444    5.3258 H         1 <0>         0.1693
     49 H14         1.9031    5.1064    3.7060 H         1 <0>         0.1407
     50 H15         3.9256    3.4493    1.6705 H         1 <0>         0.0795
     51 H16         2.6152    3.0726    0.5262 H         1 <0>         0.0732
     52 H17         2.7680    4.7151    1.1950 H         1 <0>         0.0858
     53 H18        -3.1411   -2.6973    6.5875 H         1 <0>         0.1404
     54 H19        -6.5963   -1.0105    4.7245 H         1 <0>         0.1415
     55 H20        -5.3457    0.9197    2.8087 H         1 <0>         0.4040
     56 H21        -6.0999   -2.8620    7.0272 H         1 <0>         0.3968
     57 H22        -1.3062   -0.4038    6.6868 H         1 <0>         0.3903
     58 H23        -4.1101    2.1849    6.2402 H         1 <0>         0.4021
     59 H24        -3.4289    5.2949    6.1416 H         1 <0>         0.0553
     60 H25        -2.2765    5.6194    7.4588 H         1 <0>         0.0661
     61 H26        -1.7394    4.7528    5.9997 H         1 <0>         0.0738
     62 H27        -4.4478    2.8160    8.6846 H         1 <0>         0.0616
     63 H28        -3.9705    4.5029    8.9923 H         1 <0>         0.0758
     64 H29        -5.0122    4.1121    7.6030 H         1 <0>         0.0631
     65 H30        -0.8678    3.0583    7.6076 H         1 <0>         0.0836
     66 H31        -1.6386    3.7677    9.0466 H         1 <0>         0.0631
     67 H32        -1.9970    2.0872    8.5822 H         1 <0>         0.0524
@<TRIPOS>BOND
     1    1    2 1
     2    1   37 1
     3    1   38 1
     4    1   39 1
     5    2    7 ar
     6    2    3 ar
     7    3    4 ar
     8    3   40 1
     9    4    5 ar
    10    4   41 1
    11    5    6 ar
    12    5   42 1
    13    6    7 ar
    14    6   43 1
    15    7    8 1
    16    8    9 1
    17    8   44 1
    18    8   45 1
    19    9   10 2
    20    9   11 am
    21   11   12 1
    22   11   19 1
    23   12   13 1
    24   12   46 1
    25   12   47 1
    26   13   17 1
    27   13   14 2
    28   14   15 1
    29   14   48 1
    30   15   16 2
    31   15   49 1
    32   16   17 1
    33   16   18 1
    34   18   50 1
    35   18   51 1
    36   18   52 1
    37   19   20 1
    38   19   21 1
    39   19   30 1
    40   21   26 ar
    41   21   22 ar
    42   22   23 ar
    43   22   29 1
    44   23   24 ar
    45   23   53 1
    46   24   25 ar
    47   24   28 1
    48   25   26 ar
    49   25   54 1
    50   26   27 1
    51   27   55 1
    52   28   56 1
    53   29   57 1
    54   30   31 2
    55   30   32 am
    56   32   33 1
    57   32   58 1
    58   33   34 1
    59   33   35 1
    60   33   36 1
    61   34   59 1
    62   34   60 1
    63   34   61 1
    64   35   62 1
    65   35   63 1
    66   35   64 1
    67   36   65 1
    68   36   66 1
    69   36   67 1
@<TRIPOS>MOLECULE
ZINC45599324
   54    58     0     0     0
SMALL
USER_CHARGES

@<TRIPOS>ATOM
      1 C1          0.5914    1.2655   -0.7341 C.3       1 <0>        -0.1483
      2 C2          0.4642   -0.2514   -0.5804 C.3       1 <0>        -0.0865
      3 H1          0.9002   -0.7449   -1.4491 H         1 <0>         0.0778
      4 C3         -1.0139   -0.6336   -0.4603 C.3       1 <0>        -0.1151
      5 C4         -1.1661   -2.1517   -0.5557 C.3       1 <0>        -0.0721
      6 C5         -0.2365   -2.8071    0.4625 C.2       1 <0>        -0.0836
      7 C6          0.8010   -2.1178    0.9889 C.2       1 <0>        -0.1475
      8 S1          1.5961   -3.2482    2.1035 S.3       1 <0>         0.1255
      9 C7          0.5400   -4.6404    1.8654 C.ar      1 <0>         0.1321
     10 C8         -0.4066   -4.1774    0.9165 C.ar      1 <0>        -0.2374
     11 C9         -1.4160   -5.0981    0.5132 C.ar      1 <0>         0.4970
     12 N1         -1.3600   -6.3037    1.0764 N.ar      1 <0>        -0.5759
     13 C10        -0.4464   -6.6642    1.9550 C.ar      1 <0>         0.3862
     14 N2          0.5210   -5.8564    2.3731 N.ar      1 <0>        -0.4764
     15 C11        -0.5022   -8.0631    2.5128 C.3       1 <0>        -0.0479
     16 S2          0.4815   -9.1710    1.4662 S.3       1 <0>         0.0668
     17 C12         0.3178  -10.7454    2.2402 C.2       1 <0>         0.1871
     18 N3         -0.3750  -11.0127    3.3242 N.2       1 <0>        -0.2844
     19 N4         -0.2786  -12.2612    3.6131 N.2       1 <0>        -0.2554
     20 C13         0.4816  -12.8680    2.7314 C.2       1 <0>         0.2022
     21 N5          0.8827  -11.9169    1.8217 N.pl3     1 <0>        -0.3034
     22 N6          1.6815  -12.1043    0.7296 N.3       1 <0>        -0.5862
     23 C14         0.8358  -14.3030    2.7161 C.ar      1 <0>        -0.0589
     24 C15         1.8927  -14.7547    1.9236 C.ar      1 <0>        -0.0807
     25 C16         2.2201  -16.0937    1.9125 C.ar      1 <0>        -0.1420
     26 C17         1.4999  -16.9929    2.6878 C.ar      1 <0>         0.1466
     27 C18         0.4480  -16.5477    3.4774 C.ar      1 <0>        -0.2014
     28 C19         0.1179  -15.2094    3.4985 C.ar      1 <0>        -0.0279
     29 O1          1.8252  -18.3121    2.6734 O.3       1 <0>        -0.3126
     30 C20         1.0434  -19.1820    3.4944 C.3       1 <0>         0.0231
     31 N7         -2.3935   -4.7609   -0.4056 N.pl3     1 <0>        -0.8253
     32 C21         1.1970   -0.7037    0.6905 C.3       1 <0>        -0.0368
     33 H2          1.6444    1.5356   -0.8136 H         1 <0>         0.0592
     34 H3          0.0655    1.5849   -1.6339 H         1 <0>         0.0599
     35 H4          0.1549    1.7567    0.1355 H         1 <0>         0.0581
     36 H5         -1.4001   -0.2904    0.4995 H         1 <0>         0.0698
     37 H6         -1.5767   -0.1618   -1.2657 H         1 <0>         0.0747
     38 H7         -2.1978   -2.4294   -0.3397 H         1 <0>         0.0796
     39 H8         -0.8997   -2.4829   -1.5594 H         1 <0>         0.0818
     40 H9         -0.0989   -8.0668    3.5255 H         1 <0>         0.1269
     41 H10        -1.5368   -8.4054    2.5325 H         1 <0>         0.1269
     42 H11         2.6538  -11.9753    0.9663 H         1 <0>         0.3687
     43 H12         1.5266  -13.0133    0.3200 H         1 <0>         0.3799
     44 H13         2.4528  -14.0560    1.3198 H         1 <0>         0.1219
     45 H14         3.0375  -16.4439    1.2997 H         1 <0>         0.1414
     46 H15        -0.1097  -17.2502    4.0789 H         1 <0>         0.1403
     47 H16        -0.6975  -14.8632    4.1163 H         1 <0>         0.1436
     48 H17        -0.0003  -19.1343    3.1835 H         1 <0>         0.0598
     49 H18         1.4072  -20.2042    3.3901 H         1 <0>         0.1047
     50 H19         1.1269  -18.8711    4.5358 H         1 <0>         0.0600
     51 H20        -2.2792   -3.9812   -0.9712 H         1 <0>         0.4163
     52 H21        -3.1932   -5.3041   -0.4843 H         1 <0>         0.4124
     53 H22         2.2739   -0.6477    0.5318 H         1 <0>         0.0867
     54 H23         0.9131   -0.0622    1.5248 H         1 <0>         0.0886
@<TRIPOS>BOND
     1    1    2 1
     2    1   33 1
     3    1   34 1
     4    1   35 1
     5    2    3 1
     6    2   32 1
     7    2    4 1
     8    4    5 1
     9    4   36 1
    10    4   37 1
    11    5    6 1
    12    5   38 1
    13    5   39 1
    14    6   10 1
    15    6    7 2
    16    7    8 1
    17    7   32 1
    18    8    9 1
    19    9   14 ar
    20    9   10 ar
    21   10   11 ar
    22   11   12 ar
    23   11   31 1
    24   12   13 ar
    25   13   14 ar
    26   13   15 1
    27   15   16 1
    28   15   40 1
    29   15   41 1
    30   16   17 1
    31   17   21 1
    32   17   18 2
    33   18   19 1
    34   19   20 2
    35   20   21 1
    36   20   23 1
    37   21   22 1
    38   22   42 1
    39   22   43 1
    40   23   28 ar
    41   23   24 ar
    42   24   25 ar
    43   24   44 1
    44   25   26 ar
    45   25   45 1
    46   26   27 ar
    47   26   29 1
    48   27   28 ar
    49   27   46 1
    50   28   47 1
    51   29   30 1
    52   30   48 1
    53   30   49 1
    54   30   50 1
    55   31   51 1
    56   31   52 1
    57   32   53 1
    58   32   54 1
@<TRIPOS>MOLECULE
ZINC09804781
   56    60     0     0     0
SMALL
USER_CHARGES
ethyl 2-(aminoBLAHyl)carbonylamino-4,5,6,7-tetrahydrobenzothiophene-3-carboxylate
@<TRIPOS>ATOM
      1 C1          3.9070   -0.6173    3.6486 C.3       1 <0>        -0.1530
      2 C2          2.4858   -1.0688    3.3065 C.3       1 <0>         0.0572
      3 O1          1.6432    0.0964    3.1046 O.3       1 <0>        -0.3500
      4 C3          0.3502   -0.1294    2.7935 C.2       1 <0>         0.5315
      5 O2         -0.0612   -1.2698    2.6938 O.2       1 <0>        -0.4940
      6 C4         -0.5578    0.9980    2.5757 C.2       1 <0>        -0.2115
      7 C5         -0.7316    1.5801    1.2573 C.2       1 <0>        -0.0596
      8 C6         -1.6007    2.6143    1.1941 C.2       1 <0>        -0.2114
      9 S1         -2.1784    2.8211    2.8547 S.3       1 <0>         0.2456
     10 C7         -1.2831    1.5522    3.6230 C.2       1 <0>         0.0885
     11 N1         -1.2893    1.1806    4.9567 N.am      1 <0>        -0.6171
     12 C8         -2.0660    1.8426    5.8371 C.2       1 <0>         0.6229
     13 O3         -2.7623    2.7676    5.4595 O.2       1 <0>        -0.5187
     14 C9         -2.0723    1.4623    7.2016 C.2       1 <0>        -0.3607
     15 C10        -2.7886    2.0174    8.2397 C.2       1 <0>         0.3261
     16 C11        -2.6313    1.4477    9.5690 C.ar      1 <0>        -0.1951
     17 C12        -3.2511    1.8350   10.7798 C.ar      1 <0>        -0.0082
     18 C13        -2.9534    1.1574   11.9469 C.ar      1 <0>        -0.1383
     19 C14        -2.0580    0.1043   11.9255 C.ar      1 <0>         0.1994
     20 N2         -1.4798   -0.2517   10.7868 N.ar      1 <0>        -0.4578
     21 C15        -1.7290    0.3632    9.6545 C.ar      1 <0>         0.1456
     22 S2         -1.1500    0.1565    7.9887 S.3       1 <0>         0.1074
     23 C16        -1.7039   -0.6830   13.1607 C.3       1 <0>        -0.0747
     24 C17        -2.0884    0.0919   14.4193 C.3       1 <0>        -0.1210
     25 C18        -3.5506    0.5335   14.2873 C.3       1 <0>        -0.1239
     26 C19        -3.6330    1.6147   13.2119 C.3       1 <0>        -0.0757
     27 N3         -3.6416    3.0902    8.0217 N.pl3     1 <0>        -0.8171
     28 C20        -1.9793    3.4044   -0.0206 C.3       1 <0>        -0.0343
     29 C21        -0.9558    3.1107   -1.1271 C.3       1 <0>        -0.1150
     30 C22        -0.7582    1.5954   -1.2267 C.3       1 <0>        -0.1184
     31 C23        -0.0127    1.0858    0.0080 C.3       1 <0>        -0.0635
     32 H1          4.3052   -0.0186    2.8293 H         1 <0>         0.0675
     33 H2          3.8890   -0.0196    4.5599 H         1 <0>         0.0674
     34 H3          4.5395   -1.4920    3.8002 H         1 <0>         0.0817
     35 H4          2.0876   -1.6675    4.1258 H         1 <0>         0.0711
     36 H5          2.5038   -1.6665    2.3951 H         1 <0>         0.0718
     37 H6         -0.7347    0.4438    5.2574 H         1 <0>         0.4180
     38 H7         -3.9528    2.6558   10.7924 H         1 <0>         0.1395
     39 H8         -2.2374   -1.6334   13.1465 H         1 <0>         0.0947
     40 H9         -0.6308   -0.8739   13.1699 H         1 <0>         0.0942
     41 H10        -1.4480    0.9680   14.5210 H         1 <0>         0.0704
     42 H11        -1.9759   -0.5485   15.2941 H         1 <0>         0.0802
     43 H12        -3.9001    0.9348   15.2386 H         1 <0>         0.0764
     44 H13        -4.1671   -0.3180   13.9995 H         1 <0>         0.0698
     45 H14        -3.1460    2.5199   13.5744 H         1 <0>         0.0831
     46 H15        -4.6799    1.8310   12.9994 H         1 <0>         0.0802
     47 H16        -3.7396    3.4584    7.1297 H         1 <0>         0.4253
     48 H17        -4.1397    3.4718    8.7614 H         1 <0>         0.4022
     49 H18        -1.9693    4.4684    0.2157 H         1 <0>         0.0820
     50 H19        -2.9747    3.1110   -0.3539 H         1 <0>         0.0832
     51 H20        -0.0067    3.5877   -0.8828 H         1 <0>         0.0690
     52 H21        -1.3233    3.4946   -2.0788 H         1 <0>         0.0746
     53 H22        -0.1791    1.3637   -2.1206 H         1 <0>         0.0712
     54 H23        -1.7311    1.1078   -1.2891 H         1 <0>         0.0678
     55 H24         0.0021   -0.0041    0.0020 H         1 <0>         0.0732
     56 H25         1.0091    1.4651    0.0003 H         1 <0>         0.0802
@<TRIPOS>BOND
     1    1    2 1
     2    1   32 1
     3    1   33 1
     4    1   34 1
     5    2    3 1
     6    2   35 1
     7    2   36 1
     8    3    4 1
     9    4    5 2
    10    4    6 1
    11    6   10 2
    12    6    7 1
    13    7   31 1
    14    7    8 2
    15    8    9 1
    16    8   28 1
    17    9   10 1
    18   10   11 1
    19   11   12 am
    20   11   37 1
    21   12   13 2
    22   12   14 1
    23   14   22 1
    24   14   15 2
    25   15   16 1
    26   15   27 1
    27   16   21 ar
    28   16   17 ar
    29   17   18 ar
    30   17   38 1
    31   18   26 1
    32   18   19 ar
    33   19   20 ar
    34   19   23 1
    35   20   21 ar
    36   21   22 1
    37   23   24 1
    38   23   39 1
    39   23   40 1
    40   24   25 1
    41   24   41 1
    42   24   42 1
    43   25   26 1
    44   25   43 1
    45   25   44 1
    46   26   45 1
    47   26   46 1
    48   27   47 1
    49   27   48 1
    50   28   29 1
    51   28   49 1
    52   28   50 1
    53   29   30 1
    54   29   51 1
    55   29   52 1
    56   30   31 1
    57   30   53 1
    58   30   54 1
    59   31   55 1
    60   31   56 1
@<TRIPOS>MOLECULE
ZINC14467472
   51    54     0     0     0
SMALL
USER_CHARGES
(3aS,4R,9bR)-4-(3,5-dichloro-2-hydroxy-phenyl)-N-propyl-3a,4,5,9b-tetrahydro-3H-cyclopenta[c]quinoline-8-sulfonamide
@<TRIPOS>ATOM
      1 C1          8.6308    1.9505    5.9806 C.3       1 <0>        -0.1534
      2 C2          8.4421    0.7477    5.0540 C.3       1 <0>        -0.1312
      3 C3          7.0592    0.8173    4.4032 C.3       1 <0>         0.1143
      4 N1          6.8785   -0.3344    3.5160 N.pl3     1 <0>        -1.1195
      5 S1          5.3663   -0.7283    2.9681 S.o2      1 <0>         2.6950
      6 O1          4.5132   -0.7413    4.1044 O.2       1 <0>        -0.9586
      7 O2          5.5230   -1.8579    2.1202 O.2       1 <0>        -0.9614
      8 C4          4.8212    0.5981    1.9443 C.ar      1 <0>        -0.7203
      9 C5          5.0946    0.5786    0.5886 C.ar      1 <0>         0.0229
     10 C6          4.6647    1.6189   -0.2106 C.ar      1 <0>        -0.2059
     11 C7          3.9608    2.6791    0.3467 C.ar      1 <0>         0.2649
     12 C8          3.6872    2.7043    1.7056 C.ar      1 <0>        -0.1568
     13 C9          4.1240    1.6519    2.4988 C.ar      1 <0>         0.0223
     14 C10         2.9405    3.8280    2.3510 C.3       1 <0>        -0.0137
     15 H1          3.4591    4.1371    3.2585 H         1 <0>         0.0961
     16 C11         1.5241    3.4288    2.6896 C.2       1 <0>        -0.1653
     17 C12         0.7084    4.4459    2.5082 C.2       1 <0>        -0.1540
     18 C13         1.4761    5.6625    2.0285 C.3       1 <0>        -0.1066
     19 C14         2.7767    5.0535    1.4267 C.3       1 <0>        -0.0939
     20 H2          3.6328    5.7273    1.4608 H         1 <0>         0.1037
     21 C15         2.4475    4.5895    0.0048 C.3       1 <0>         0.2066
     22 H3          2.3541    5.4562   -0.6496 H         1 <0>         0.1080
     23 N2          3.5294    3.7244   -0.4770 N.pl3     1 <0>        -0.7388
     24 C16         1.1515    3.8205    0.0120 C.ar      1 <0>        -0.0876
     25 C17         1.1594    2.4545    0.2213 C.ar      1 <0>        -0.0791
     26 C18        -0.0297    1.7477    0.2290 C.ar      1 <0>        -0.0315
     27 C19        -1.2294    2.4057    0.0212 C.ar      1 <0>        -0.0926
     28 C20        -1.2422    3.7726   -0.1832 C.ar      1 <0>        -0.0498
     29 C21        -0.0494    4.4832   -0.1908 C.ar      1 <0>         0.1306
     30 O3         -0.0590    5.8270   -0.3963 O.3       1 <0>        -0.4773
     31 Cl1        -2.7477    4.5991   -0.4362 Cl        1 <0>        -0.0429
     32 Cl2        -0.0165    0.0319    0.4927 Cl        1 <0>        -0.0503
     33 H4          7.8638    1.9365    6.7549 H         1 <0>         0.0592
     34 H5          9.6161    1.9009    6.4443 H         1 <0>         0.0608
     35 H6          8.5472    2.8709    5.4028 H         1 <0>         0.0573
     36 H7          8.5258   -0.1728    5.6319 H         1 <0>         0.0721
     37 H8          9.2092    0.7616    4.2798 H         1 <0>         0.0699
     38 H9          6.9755    1.7377    3.8253 H         1 <0>         0.0654
     39 H10         6.2922    0.8033    5.1774 H         1 <0>         0.0803
     40 H11         7.6447   -0.8663    3.2495 H         1 <0>         0.4183
     41 H12         5.6421   -0.2465    0.1574 H         1 <0>         0.1410
     42 H13         4.8754    1.6084   -1.2698 H         1 <0>         0.1333
     43 H14         3.9159    1.6578    3.5585 H         1 <0>         0.1383
     44 H15         1.2233    2.4492    3.0305 H         1 <0>         0.1258
     45 H16        -0.3582    4.4177    2.6761 H         1 <0>         0.1229
     46 H17         1.7115    6.3222    2.8636 H         1 <0>         0.0792
     47 H18         0.9133    6.1982    1.2640 H         1 <0>         0.1024
     48 H19         3.9356    3.8731   -1.3452 H         1 <0>         0.4110
     49 H20         2.0948    1.9383    0.3792 H         1 <0>         0.1511
     50 H21        -2.1563    1.8514    0.0229 H         1 <0>         0.1466
     51 H22         0.0120    6.0832   -1.3260 H         1 <0>         0.3909
@<TRIPOS>BOND
     1    1    2 1
     2    1   33 1
     3    1   34 1
     4    1   35 1
     5    2    3 1
     6    2   36 1
     7    2   37 1
     8    3    4 1
     9    3   38 1
    10    3   39 1
    11    4    5 1
    12    4   40 1
    13    5    6 2
    14    5    7 2
    15    5    8 1
    16    8   13 ar
    17    8    9 ar
    18    9   10 ar
    19    9   41 1
    20   10   11 ar
    21   10   42 1
    22   11   23 1
    23   11   12 ar
    24   12   13 ar
    25   12   14 1
    26   13   43 1
    27   14   15 1
    28   14   19 1
    29   14   16 1
    30   16   17 2
    31   16   44 1
    32   17   18 1
    33   17   45 1
    34   18   19 1
    35   18   46 1
    36   18   47 1
    37   19   20 1
    38   19   21 1
    39   21   22 1
    40   21   23 1
    41   21   24 1
    42   23   48 1
    43   24   29 ar
    44   24   25 ar
    45   25   26 ar
    46   25   49 1
    47   26   27 ar
    48   26   32 1
    49   27   28 ar
    50   27   50 1
    51   28   29 ar
    52   28   31 1
    53   29   30 1
    54   30   51 1
@<TRIPOS>MOLECULE
ZINC21244612
   64    68     0     0     0
SMALL
USER_CHARGES
(6S,9S)-6-(4-hydroxyphenyl)-9-(4-isobutoxyphenyl)-5,6,8,9,10,11-hexahydrobenzo[c][1,5]benzodiazepin-7-one
@<TRIPOS>ATOM
      1 C1        -12.7086    4.7981   -4.3353 C.3       1 <0>        -0.1497
      2 C2        -12.1269    3.4820   -3.8150 C.3       1 <0>        -0.0949
      3 C3        -12.4200    2.3635   -4.8169 C.3       1 <0>        -0.1491
      4 C4        -10.6138    3.6268   -3.6405 C.3       1 <0>         0.0612
      5 O1        -10.3420    4.5898   -2.6203 O.3       1 <0>        -0.3126
      6 C5         -9.0359    4.8387   -2.3390 C.ar      1 <0>         0.1320
      7 C6         -8.6998    5.7620   -1.3597 C.ar      1 <0>        -0.1501
      8 C7         -7.3714    6.0129   -1.0753 C.ar      1 <0>        -0.0711
      9 C8         -6.3773    5.3445   -1.7657 C.ar      1 <0>        -0.1203
     10 C9         -6.7096    4.4279   -2.7461 C.ar      1 <0>        -0.0725
     11 C10        -8.0365    4.1694   -3.0303 C.ar      1 <0>        -0.2063
     12 C11        -4.9290    5.6201   -1.4534 C.3       1 <0>        -0.0320
     13 H1         -4.8984    6.3622   -0.6420 H         1 <0>         0.0905
     14 C12        -4.2352    4.3264   -1.0312 C.3       1 <0>        -0.1005
     15 C13        -2.7702    4.5988   -0.7301 C.2       1 <0>         0.2667
     16 C14        -2.1015    5.5445   -1.4092 C.2       1 <0>        -0.3008
     17 C15        -0.6435    5.8988   -1.2332 C.3       1 <0>         0.2901
     18 H2         -0.5769    6.9828   -1.0584 H         1 <0>         0.0900
     19 N1         -0.0240    5.3147   -0.0625 N.pl3     1 <0>        -0.7825
     20 C16         0.1206    3.9346    0.0623 C.ar      1 <0>         0.1747
     21 C17         1.3699    3.3349    0.0463 C.ar      1 <0>        -0.1264
     22 C18         1.4638    1.9556    0.1106 C.ar      1 <0>        -0.1096
     23 C19         0.3218    1.1782    0.1752 C.ar      1 <0>        -0.1248
     24 C20        -0.9281    1.7738    0.1894 C.ar      1 <0>        -0.1176
     25 C21        -1.0218    3.1541    0.1570 C.ar      1 <0>         0.1134
     26 N2         -2.2405    3.8194    0.2470 N.pl3     1 <0>        -0.6978
     27 C22         0.1089    5.4354   -2.4539 C.ar      1 <0>        -0.1233
     28 C23         0.6989    6.3617   -3.2939 C.ar      1 <0>        -0.0466
     29 C24         1.3940    5.9392   -4.4105 C.ar      1 <0>        -0.1676
     30 C25         1.4901    4.5847   -4.6948 C.ar      1 <0>         0.1540
     31 C26         0.8925    3.6576   -3.8535 C.ar      1 <0>        -0.2199
     32 C27         0.2033    4.0849   -2.7351 C.ar      1 <0>        -0.0636
     33 O2          2.1690    4.1668   -5.7954 O.3       1 <0>        -0.5126
     34 C28        -2.7625    6.3195   -2.3915 C.2       1 <0>         0.4001
     35 O3         -2.1280    7.1581   -3.0010 O.2       1 <0>        -0.4713
     36 C29        -4.2176    6.1435   -2.7068 C.3       1 <0>        -0.1599
     37 H3        -12.4979    5.6023   -3.6150 H         1 <0>         0.0629
     38 H4        -13.7965    4.6940   -4.4607 H         1 <0>         0.0585
     39 H5        -12.2496    5.0442   -5.3042 H         1 <0>         0.0547
     40 H6        -12.5858    3.2358   -2.8461 H         1 <0>         0.0821
     41 H7        -12.0018    1.4173   -4.4429 H         1 <0>         0.0584
     42 H8        -11.9611    2.6096   -5.7858 H         1 <0>         0.0588
     43 H9        -13.5079    2.2594   -4.9423 H         1 <0>         0.0667
     44 H10       -10.1834    2.6563   -3.3527 H         1 <0>         0.0626
     45 H11       -10.1656    3.9601   -4.5882 H         1 <0>         0.0635
     46 H12        -9.4760    6.2841   -0.8199 H         1 <0>         0.1310
     47 H13        -7.1092    6.7313   -0.3128 H         1 <0>         0.1299
     48 H14        -5.9311    3.9107   -3.2873 H         1 <0>         0.1229
     49 H15        -8.2956    3.4501   -3.7931 H         1 <0>         0.1269
     50 H16        -4.7224    3.9264   -0.1297 H         1 <0>         0.0865
     51 H17        -4.3073    3.5894   -1.8446 H         1 <0>         0.0939
     52 H18         0.3418    5.9629    0.7474 H         1 <0>         0.4158
     53 H19         2.2629    3.9390   -0.0155 H         1 <0>         0.1234
     54 H20         2.4350    1.4834    0.1107 H         1 <0>         0.1220
     55 H21         0.4051    0.1019    0.2102 H         1 <0>         0.1240
     56 H22        -1.8209    1.1673    0.2295 H         1 <0>         0.1246
     57 H23        -2.7835    3.6787    1.1932 H         1 <0>         0.4263
     58 H24         0.6200    7.4163   -3.0746 H         1 <0>         0.1268
     59 H25         1.8583    6.6629   -5.0640 H         1 <0>         0.1249
     60 H26         0.9662    2.6026   -4.0725 H         1 <0>         0.1197
     61 H27        -0.2618    3.3636   -2.0796 H         1 <0>         0.1180
     62 H28         2.2447    3.0926   -6.0200 H         1 <0>         0.4297
     63 H29        -4.3386    5.4197   -3.5263 H         1 <0>         0.0986
     64 H30        -4.6565    7.1081   -3.0017 H         1 <0>         0.0977
@<TRIPOS>BOND
     1    1    2 1
     2    1   37 1
     3    1   38 1
     4    1   39 1
     5    2    3 1
     6    2    4 1
     7    2   40 1
     8    3   41 1
     9    3   42 1
    10    3   43 1
    11    4    5 1
    12    4   44 1
    13    4   45 1
    14    5    6 1
    15    6   11 ar
    16    6    7 ar
    17    7    8 ar
    18    7   46 1
    19    8    9 ar
    20    8   47 1
    21    9   10 ar
    22    9   12 1
    23   10   11 ar
    24   10   48 1
    25   11   49 1
    26   12   13 1
    27   12   36 1
    28   12   14 1
    29   14   15 1
    30   14   50 1
    31   14   51 1
    32   15   26 1
    33   15   16 2
    34   16   17 1
    35   16   34 1
    36   17   18 1
    37   17   19 1
    38   17   27 1
    39   19   20 1
    40   19   52 1
    41   20   25 ar
    42   20   21 ar
    43   21   22 ar
    44   21   53 1
    45   22   23 ar
    46   22   54 1
    47   23   24 ar
    48   23   55 1
    49   24   25 ar
    50   24   56 1
    51   25   26 1
    52   26   57 1
    53   27   32 ar
    54   27   28 ar
    55   28   29 ar
    56   28   58 1
    57   29   30 ar
    58   29   59 1
    59   30   31 ar
    60   30   33 1
    61   31   32 ar
    62   31   60 1
    63   32   61 1
    64   33   62 1
    65   34   35 2
    66   34   36 1
    67   36   63 1
    68   36   64 1
@<TRIPOS>MOLECULE
ZINC13510434
   64    68     0     0     0
SMALL
USER_CHARGES

@<TRIPOS>ATOM
      1 C1          0.2788    0.9531    1.7585 C.ar      1 <0>        -0.1329
      2 C2          0.4774   -0.3401    2.2062 C.ar      1 <0>        -0.0999
      3 C3          1.6625   -0.9935    1.9306 C.ar      1 <0>        -0.1210
      4 C4          2.6552   -0.3506    1.2027 C.ar      1 <0>         0.1425
      5 C5          2.4524    0.9480    0.7541 C.ar      1 <0>        -0.1447
      6 C6          1.2652    1.5960    1.0334 C.ar      1 <0>        -0.1000
      7 N1          3.8572   -1.0096    0.9222 N.am      1 <0>        -0.6695
      8 C7          3.8642   -2.3425    0.7222 C.2       1 <0>         0.5200
      9 O1          2.8189   -2.9568    0.6931 O.2       1 <0>        -0.5075
     10 C8          5.1709   -3.0694    0.5348 C.3       1 <0>        -0.0982
     11 H1          5.7930   -2.9326    1.4193 H         1 <0>         0.1097
     12 C9          4.8997   -4.5609    0.3278 C.3       1 <0>        -0.0776
     13 H2          3.8257   -4.7434    0.3650 H         1 <0>         0.1346
     14 C10         5.4436   -4.9938   -1.0352 C.3       1 <0>        -0.0455
     15 C11         4.7513   -4.1915   -2.1388 C.3       1 <0>        -0.1092
     16 C12         5.0226   -2.7001   -1.9318 C.3       1 <0>        -0.1152
     17 C13         5.8957   -2.5080   -0.6902 C.3       1 <0>        -0.0784
     18 C14         7.2223   -3.2460   -0.8804 C.3       1 <0>        -0.1106
     19 C15         6.9511   -4.7375   -1.0875 C.3       1 <0>        -0.1248
     20 C16         5.1765   -6.4628   -1.2391 C.2       1 <0>         0.5351
     21 O2          4.6071   -7.1008   -0.3789 O.2       1 <0>        -0.5036
     22 N2          5.5703   -7.0678   -2.3772 N.am      1 <0>        -0.6733
     23 C17         5.2292   -8.4041   -2.6135 C.ar      1 <0>         0.1510
     24 C18         6.0986   -9.2311   -3.3126 C.ar      1 <0>        -0.1477
     25 C19         5.7589  -10.5496   -3.5442 C.ar      1 <0>        -0.1005
     26 C20         4.5546  -11.0465   -3.0807 C.ar      1 <0>        -0.1370
     27 C21         3.6864  -10.2255   -2.3846 C.ar      1 <0>        -0.1005
     28 C22         4.0230   -8.9077   -2.1444 C.ar      1 <0>        -0.1214
     29 C23         5.5816   -5.3510    1.4148 C.2       1 <0>         0.5328
     30 O3          6.4201   -6.1790    1.1277 O.2       1 <0>        -0.4987
     31 N3          5.2596   -5.1377    2.7061 N.am      1 <0>        -0.6756
     32 C24         5.9689   -5.7896    3.7209 C.ar      1 <0>         0.1507
     33 C25         5.3233   -6.1612    4.8929 C.ar      1 <0>        -0.1473
     34 C26         6.0262   -6.8045    5.8926 C.ar      1 <0>        -0.0993
     35 C27         7.3715   -7.0787    5.7276 C.ar      1 <0>        -0.1366
     36 C28         8.0174   -6.7095    4.5620 C.ar      1 <0>        -0.1008
     37 C29         7.3187   -6.0715    3.5559 C.ar      1 <0>        -0.1216
     38 H3         -0.6505    1.4604    1.9718 H         1 <0>         0.1242
     39 H4         -0.2950   -0.8395    2.7723 H         1 <0>         0.1263
     40 H5          1.8173   -2.0032    2.2812 H         1 <0>         0.1333
     41 H6          3.2226    1.4508    0.1880 H         1 <0>         0.1253
     42 H7          1.1069    2.6059    0.6848 H         1 <0>         0.1269
     43 H8          4.6854   -0.5072    0.8717 H         1 <0>         0.4117
     44 H9          5.1389   -4.5000   -3.1098 H         1 <0>         0.0760
     45 H10         3.6774   -4.3741   -2.1015 H         1 <0>         0.0750
     46 H11         5.5389   -2.3001   -2.8045 H         1 <0>         0.0787
     47 H12         4.0774   -2.1743   -1.7962 H         1 <0>         0.0679
     48 H13         6.0889   -1.4455   -0.5427 H         1 <0>         0.0856
     49 H14         7.7387   -2.8461   -1.7531 H         1 <0>         0.0773
     50 H15         7.8444   -3.1092    0.0041 H         1 <0>         0.0699
     51 H16         7.4443   -5.3090   -0.3012 H         1 <0>         0.1005
     52 H17         7.3386   -5.0459   -2.0584 H         1 <0>         0.0690
     53 H18         6.0902   -6.5768   -3.0326 H         1 <0>         0.4080
     54 H19         7.0392   -8.8435   -3.6751 H         1 <0>         0.1239
     55 H20         6.4345  -11.1931   -4.0881 H         1 <0>         0.1256
     56 H21         4.2912  -12.0779   -3.2631 H         1 <0>         0.1228
     57 H22         2.7464  -10.6165   -2.0243 H         1 <0>         0.1245
     58 H23         3.3468   -8.2684   -1.5962 H         1 <0>         0.1321
     59 H24         4.5362   -4.5322    2.9319 H         1 <0>         0.4083
     60 H25         4.2727   -5.9471    5.0225 H         1 <0>         0.1240
     61 H26         5.5247   -7.0935    6.8045 H         1 <0>         0.1258
     62 H27         7.9189   -7.5818    6.5109 H         1 <0>         0.1229
     63 H28         9.0683   -6.9247    4.4362 H         1 <0>         0.1246
     64 H29         7.8225   -5.7880    2.6436 H         1 <0>         0.1323
@<TRIPOS>BOND
     1    1    6 ar
     2    1    2 ar
     3    1   38 1
     4    2    3 ar
     5    2   39 1
     6    3    4 ar
     7    3   40 1
     8    4    5 ar
     9    4    7 1
    10    5    6 ar
    11    5   41 1
    12    6   42 1
    13    7    8 am
    14    7   43 1
    15    8    9 2
    16    8   10 1
    17   10   11 1
    18   10   17 1
    19   10   12 1
    20   12   13 1
    21   12   14 1
    22   12   29 1
    23   14   19 1
    24   14   15 1
    25   14   20 1
    26   15   16 1
    27   15   44 1
    28   15   45 1
    29   16   17 1
    30   16   46 1
    31   16   47 1
    32   17   18 1
    33   17   48 1
    34   18   19 1
    35   18   49 1
    36   18   50 1
    37   19   51 1
    38   19   52 1
    39   20   21 2
    40   20   22 am
    41   22   23 1
    42   22   53 1
    43   23   28 ar
    44   23   24 ar
    45   24   25 ar
    46   24   54 1
    47   25   26 ar
    48   25   55 1
    49   26   27 ar
    50   26   56 1
    51   27   28 ar
    52   27   57 1
    53   28   58 1
    54   29   30 2
    55   29   31 am
    56   31   32 1
    57   31   59 1
    58   32   37 ar
    59   32   33 ar
    60   33   34 ar
    61   33   60 1
    62   34   35 ar
    63   34   61 1
    64   35   36 ar
    65   35   62 1
    66   36   37 ar
    67   36   63 1
    68   37   64 1
@<TRIPOS>MOLECULE
ZINC63686604
   64    67     0     0     0
SMALL
USER_CHARGES

@<TRIPOS>ATOM
      1 C1         -2.3474    0.6847    0.7452 C.3       1 <0>        -0.1211
      2 C2         -1.7303   -0.6827    0.6021 C.ar      1 <0>        -0.0155
      3 C3         -1.6708   -1.2818   -0.6488 C.ar      1 <0>        -0.1667
      4 C4         -1.1150   -2.5215   -0.7996 C.ar      1 <0>         0.0138
      5 C5         -0.6038   -3.1890    0.3134 C.ar      1 <0>        -0.2091
      6 C6         -0.6609   -2.5880    1.5829 C.ar      1 <0>         0.2058
      7 C7         -1.2261   -1.3225    1.7130 C.ar      1 <0>        -0.1861
      8 N1         -0.1534   -3.2569    2.6741 N.pl3     1 <0>        -0.6033
      9 C8          0.4033   -4.4867    2.5577 C.2       1 <0>         0.2143
     10 C9          0.4971   -5.1315    1.3763 C.2       1 <0>        -0.2907
     11 C10         0.0034   -4.5265    0.1967 C.2       1 <0>         0.4189
     12 O1          0.0779   -5.0932   -0.8812 O.2       1 <0>        -0.4898
     13 C11         0.9386   -5.1598    3.7951 C.3       1 <0>        -0.0623
     14 S1          2.5088   -4.3870    4.2726 S.3       1 <0>        -0.1498
     15 C12         3.0132   -5.2991    5.7573 C.3       1 <0>         0.2077
     16 H1          3.9657   -4.9170    6.1245 H         1 <0>         0.0958
     17 N2          3.1298   -6.7430    5.4507 N.3       1 <0>        -0.4810
     18 N3          2.6361   -7.4170    6.6618 N.3       1 <0>        -0.4843
     19 C13         1.5094   -6.5489    7.0934 C.3       1 <0>         0.2213
     20 H2          0.6118   -6.7746    6.5176 H         1 <0>         0.1332
     21 N4          1.9790   -5.1728    6.8051 N.3       1 <0>        -0.5220
     22 C14         2.5267   -4.5388    8.0118 C.3       1 <0>         0.0002
     23 C15         1.2419   -6.7232    8.5897 C.3       1 <0>         0.0515
     24 O2          0.7767   -8.0512    8.8389 O.3       1 <0>        -0.3006
     25 C16         0.4907   -8.3731   10.1279 C.ar      1 <0>         0.1229
     26 C17         0.6490   -7.4284   11.1315 C.ar      1 <0>        -0.2069
     27 C18         0.3571   -7.7578   12.4409 C.ar      1 <0>        -0.0780
     28 C19        -0.0919   -9.0280   12.7518 C.ar      1 <0>        -0.1098
     29 C20        -0.2501   -9.9715   11.7535 C.ar      1 <0>        -0.0738
     30 C21         0.0345   -9.6451   10.4417 C.ar      1 <0>        -0.1434
     31 C22        -0.4091   -9.3849   14.1812 C.3       1 <0>        -0.0542
     32 C23        -1.8788   -9.7960   14.2901 C.3       1 <0>        -0.1458
     33 C24         0.4801  -10.5479   14.6258 C.3       1 <0>        -0.1457
     34 C25        -1.0553   -3.1641   -2.1614 C.3       1 <0>        -0.1267
     35 H3         -1.5788    1.4459    0.6119 H         1 <0>         0.0778
     36 H4         -3.1223    0.8145   -0.0104 H         1 <0>         0.0728
     37 H5         -2.7876    0.7826    1.7375 H         1 <0>         0.0703
     38 H6         -2.0672   -0.7643   -1.5099 H         1 <0>         0.1294
     39 H7         -1.2731   -0.8463    2.6812 H         1 <0>         0.1318
     40 H8          0.9497   -6.1110    1.3311 H         1 <0>         0.1522
     41 H9         -0.1951   -2.8373    3.5477 H         1 <0>         0.4189
     42 H10         0.2193   -5.0528    4.6070 H         1 <0>         0.1066
     43 H11         1.1017   -6.2181    3.5913 H         1 <0>         0.1254
     44 H12         4.0879   -6.9961    5.2611 H         1 <0>         0.3593
     45 H13         3.3531   -7.4579    7.3706 H         1 <0>         0.3165
     46 H14         2.9722   -3.5796    7.7479 H         1 <0>         0.0850
     47 H15         1.7262   -4.3810    8.7346 H         1 <0>         0.0868
     48 H16         3.2881   -5.1853    8.4481 H         1 <0>         0.0333
     49 H17         2.1632   -6.5506    9.1460 H         1 <0>         0.0668
     50 H18         0.4849   -6.0071    8.9094 H         1 <0>         0.0833
     51 H19         1.0004   -6.4363   10.8893 H         1 <0>         0.1228
     52 H20         0.4802   -7.0228   13.2225 H         1 <0>         0.1240
     53 H21        -0.6007  -10.9631   11.9989 H         1 <0>         0.1298
     54 H22        -0.0934  -10.3810    9.6616 H         1 <0>         0.1325
     55 H23        -0.2250   -8.5216   14.8206 H         1 <0>         0.0763
     56 H24        -2.1082  -10.0542   15.3240 H         1 <0>         0.0588
     57 H25        -2.5123   -8.9675   13.9733 H         1 <0>         0.0557
     58 H26        -2.0630  -10.6593   13.6506 H         1 <0>         0.0571
     59 H27         1.5271  -10.2550   14.5482 H         1 <0>         0.0553
     60 H28         0.2507  -10.8060   15.6597 H         1 <0>         0.0588
     61 H29         0.2959  -11.4112   13.9863 H         1 <0>         0.0571
     62 H30        -0.0760   -2.9849   -2.6051 H         1 <0>         0.0769
     63 H31        -1.2194   -4.2373   -2.0643 H         1 <0>         0.0975
     64 H32        -1.8275   -2.7348   -2.7999 H         1 <0>         0.0622
@<TRIPOS>BOND
     1    1    2 1
     2    1   35 1
     3    1   36 1
     4    1   37 1
     5    2    7 ar
     6    2    3 ar
     7    3    4 ar
     8    3   38 1
     9    4    5 ar
    10    4   34 1
    11    5    6 ar
    12    5   11 1
    13    6    7 ar
    14    6    8 1
    15    7   39 1
    16    8    9 1
    17    8   41 1
    18    9   10 2
    19    9   13 1
    20   10   11 1
    21   10   40 1
    22   11   12 2
    23   13   14 1
    24   13   42 1
    25   13   43 1
    26   14   15 1
    27   15   16 1
    28   15   21 1
    29   15   17 1
    30   17   18 1
    31   17   44 1
    32   18   19 1
    33   18   45 1
    34   19   20 1
    35   19   21 1
    36   19   23 1
    37   21   22 1
    38   22   46 1
    39   22   47 1
    40   22   48 1
    41   23   24 1
    42   23   49 1
    43   23   50 1
    44   24   25 1
    45   25   30 ar
    46   25   26 ar
    47   26   27 ar
    48   26   51 1
    49   27   28 ar
    50   27   52 1
    51   28   29 ar
    52   28   31 1
    53   29   30 ar
    54   29   53 1
    55   30   54 1
    56   31   32 1
    57   31   33 1
    58   31   55 1
    59   32   56 1
    60   32   57 1
    61   32   58 1
    62   33   59 1
    63   33   60 1
    64   33   61 1
    65   34   62 1
    66   34   63 1
    67   34   64 1
@<TRIPOS>MOLECULE
ZINC09695097
   45    48     0     0     0
SMALL
USER_CHARGES
3-[[4-amino-5-(3-bromophenyl)-1,2,4-triazol-3-yl]sulfanyl]-N-(1,3-dioxoisoindolin-5-yl)-propanamide
@<TRIPOS>ATOM
      1 C1         13.5145   11.1715   -0.9200 C.ar      1 <0>        -0.1018
      2 C2         12.4370   10.3214   -0.7770 C.ar      1 <0>        -0.0571
      3 C3         12.6078    8.9473   -0.9510 C.ar      1 <0>        -0.0105
      4 C4         13.8704    8.4410   -1.2638 C.ar      1 <0>        -0.0953
      5 C5         14.9392    9.3024   -1.4088 C.ar      1 <0>        -0.0843
      6 C6         14.7623   10.6647   -1.2352 C.ar      1 <0>        -0.0748
      7 Br1        16.6494    8.6201   -1.8396 Br        1 <0>        -0.0337
      8 C7         11.4575    8.0311   -0.7987 C.2       1 <0>         0.1901
      9 N1         10.1878    8.3638   -0.8144 N.2       1 <0>        -0.2449
     10 N2          9.4583    7.3173   -0.6587 N.2       1 <0>        -0.2776
     11 C8         10.2182    6.2531   -0.5258 C.2       1 <0>         0.1923
     12 N3         11.5160    6.6691   -0.6134 N.pl3     1 <0>        -0.3039
     13 N4         12.6382    5.8943   -0.5341 N.3       1 <0>        -0.5845
     14 S1          9.6653    4.5973   -0.2867 S.3       1 <0>         0.0439
     15 C9          7.8747    4.8616   -0.2801 C.3       1 <0>        -0.1062
     16 C10         7.1622    3.5225   -0.0804 C.3       1 <0>        -0.1263
     17 C11         5.6713    3.7426   -0.0750 C.2       1 <0>         0.5232
     18 O1          5.2229    4.8605   -0.2168 O.2       1 <0>        -0.5025
     19 N5          4.8364    2.6972    0.0876 N.am      1 <0>        -0.6720
     20 C12         3.4577    2.8851   -0.0049 C.ar      1 <0>         0.1712
     21 C13         2.8874    4.0638    0.4605 C.ar      1 <0>        -0.1003
     22 C14         1.5216    4.2618    0.3748 C.ar      1 <0>        -0.0191
     23 C15         0.7149    3.2781   -0.1801 C.ar      1 <0>        -0.1589
     24 C16         1.2904    2.0799   -0.6532 C.ar      1 <0>        -0.1209
     25 C17         2.6573    1.8892   -0.5635 C.ar      1 <0>        -0.0687
     26 C18         0.1671    1.2690   -1.1699 C.2       1 <0>         0.5807
     27 O2          0.2588    0.1633   -1.6640 O.2       1 <0>        -0.4605
     28 N6         -0.9727    1.9644   -1.0060 N.am      1 <0>        -0.6797
     29 C19        -0.7349    3.1540   -0.4252 C.2       1 <0>         0.5790
     30 O3         -1.5737    3.9894   -0.1522 O.2       1 <0>        -0.4603
     31 H1         13.3833   12.2350   -0.7851 H         1 <0>         0.1464
     32 H2         11.4633   10.7188   -0.5312 H         1 <0>         0.1477
     33 H3         14.0100    7.3782   -1.3953 H         1 <0>         0.1243
     34 H4         15.6023   11.3344   -1.3459 H         1 <0>         0.1426
     35 H5         12.9668    5.6387   -1.4532 H         1 <0>         0.3701
     36 H6         13.3623    6.3596   -0.0076 H         1 <0>         0.3795
     37 H7          7.5684    5.2980   -1.2308 H         1 <0>         0.1091
     38 H8          7.6103    5.5386    0.5323 H         1 <0>         0.1097
     39 H9          7.4685    3.0862    0.8703 H         1 <0>         0.1139
     40 H10         7.4265    2.8456   -0.8928 H         1 <0>         0.1135
     41 H11         5.1944    1.8142    0.2689 H         1 <0>         0.4193
     42 H12         3.5147    4.8297    0.8920 H         1 <0>         0.1593
     43 H13         1.0837    5.1795    0.7387 H         1 <0>         0.1488
     44 H14         3.1026    0.9739   -0.9246 H         1 <0>         0.1478
     45 H15        -1.8510    1.6484   -1.2701 H         1 <0>         0.4316
@<TRIPOS>BOND
     1    1    6 ar
     2    1    2 ar
     3    1   31 1
     4    2    3 ar
     5    2   32 1
     6    3    4 ar
     7    3    8 1
     8    4    5 ar
     9    4   33 1
    10    5    6 ar
    11    5    7 1
    12    6   34 1
    13    8   12 1
    14    8    9 2
    15    9   10 1
    16   10   11 2
    17   11   12 1
    18   11   14 1
    19   12   13 1
    20   13   35 1
    21   13   36 1
    22   14   15 1
    23   15   16 1
    24   15   37 1
    25   15   38 1
    26   16   17 1
    27   16   39 1
    28   16   40 1
    29   17   18 2
    30   17   19 am
    31   19   20 1
    32   19   41 1
    33   20   25 ar
    34   20   21 ar
    35   21   22 ar
    36   21   42 1
    37   22   23 ar
    38   22   43 1
    39   23   29 1
    40   23   24 ar
    41   24   25 ar
    42   24   26 1
    43   25   44 1
    44   26   27 2
    45   26   28 am
    46   28   29 am
    47   28   45 1
    48   29   30 2
@<TRIPOS>MOLECULE
ZINC20830696
   61    64     0     0     0
SMALL
USER_CHARGES
3-[[4-amino-5-(4-pyridyl)-1,2,4-triazol-3-yl]sulfanyl]-N-[4-[(2,4-dimethylphenyl)sulfamoyl]phenyl]propanamide
@<TRIPOS>ATOM
      1 C1         -4.2300    2.8256   -0.5424 C.3       1 <0>        -0.1166
      2 C2         -2.8659    2.1879   -0.4804 C.ar      1 <0>        -0.0981
      3 C3         -1.8190    2.7262   -1.2064 C.ar      1 <0>        -0.0955
      4 C4         -0.5681    2.1439   -1.1526 C.ar      1 <0>        -0.1700
      5 C5         -0.3618    1.0162   -0.3677 C.ar      1 <0>         0.1544
      6 C6         -1.4165    0.4754    0.3563 C.ar      1 <0>        -0.0992
      7 C7         -2.6640    1.0657    0.3017 C.ar      1 <0>        -0.0989
      8 C8         -1.1988   -0.7513    1.2042 C.3       1 <0>        -0.1168
      9 N1          0.9021    0.4244   -0.3114 N.pl3     1 <0>        -1.0658
     10 S1          2.2616    1.3684   -0.3654 S.o2      1 <0>         2.6944
     11 O1          3.3673    0.5004   -0.1575 O.2       1 <0>        -0.9508
     12 O2          2.1422    2.1867   -1.5210 O.2       1 <0>        -0.9506
     13 C9          2.2012    2.4488    1.0252 C.ar      1 <0>        -0.6926
     14 C10         1.5931    3.6856    0.9120 C.ar      1 <0>         0.0056
     15 C11         1.5398    4.5328    2.0015 C.ar      1 <0>        -0.1663
     16 C12         2.1067    4.1456    3.2086 C.ar      1 <0>         0.2105
     17 C13         2.7213    2.9051    3.3175 C.ar      1 <0>        -0.1459
     18 C14         2.7670    2.0605    2.2257 C.ar      1 <0>         0.0031
     19 N2          2.0583    5.0034    4.3130 N.am      1 <0>        -0.6895
     20 C15         3.0901    5.0457    5.1792 C.2       1 <0>         0.5230
     21 O3          4.0226    4.2811    5.0494 O.2       1 <0>        -0.5057
     22 C16         3.0850    6.0430    6.3090 C.3       1 <0>        -0.1281
     23 C17         4.3611    5.8815    7.1375 C.3       1 <0>        -0.0908
     24 S2          4.3551    7.0793    8.4945 S.3       1 <0>         0.0043
     25 C18         5.8912    6.6816    9.2605 C.2       1 <0>         0.1367
     26 N3          6.7352    5.7479    8.8779 N.2       1 <0>        -0.2676
     27 N4          7.7561    5.7297    9.6583 N.2       1 <0>        -0.2409
     28 C19         7.6228    6.6438   10.5914 C.2       1 <0>         0.1863
     29 N5          6.4242    7.2810   10.3645 N.pl3     1 <0>        -0.2038
     30 N6          5.8814    8.3015   11.0925 N.3       1 <0>        -0.7640
     31 C20         8.5795    6.9339   11.6795 C.ar      1 <0>         0.0423
     32 C21         9.9002    6.4723   11.6189 C.ar      1 <0>        -0.1323
     33 C22        10.7608    6.7711   12.6540 C.ar      1 <0>         0.1142
     34 N7         10.3516    7.4714   13.6950 N.ar      1 <0>        -0.4775
     35 C23         9.1147    7.9207   13.7947 C.ar      1 <0>         0.1142
     36 C24         8.1892    7.6733   12.8030 C.ar      1 <0>        -0.1757
     37 H1         -4.1963    3.6994   -1.2098 H         1 <0>         0.0662
     38 H2         -4.5312    3.1458    0.4659 H         1 <0>         0.0688
     39 H3         -4.9581    2.0971   -0.9286 H         1 <0>         0.0697
     40 H4         -1.9801    3.6028   -1.8163 H         1 <0>         0.1282
     41 H5          0.2488    2.5643   -1.7203 H         1 <0>         0.1598
     42 H6         -3.4837    0.6479    0.8674 H         1 <0>         0.1252
     43 H7         -2.1422   -1.0281    1.6976 H         1 <0>         0.0695
     44 H8         -0.4347   -0.5392    1.9666 H         1 <0>         0.0708
     45 H9         -0.8606   -1.5819    0.5673 H         1 <0>         0.0700
     46 H10         0.9944   -0.6688   -0.2312 H         1 <0>         0.4525
     47 H11         1.1560    3.9878   -0.0282 H         1 <0>         0.1434
     48 H12         1.0611    5.4969    1.9136 H         1 <0>         0.1373
     49 H13         3.1628    2.6009    4.2551 H         1 <0>         0.1490
     50 H14         3.2448    1.0956    2.3097 H         1 <0>         0.1435
     51 H15         1.1782    5.6432    4.4743 H         1 <0>         0.4417
     52 H16         3.0412    7.0624    5.8980 H         1 <0>         0.1128
     53 H17         2.2077    5.8676    6.9489 H         1 <0>         0.1126
     54 H18         4.4049    4.8621    7.5484 H         1 <0>         0.1112
     55 H19         5.2384    6.0568    6.4975 H         1 <0>         0.1111
     56 H20         6.4167    8.6980   11.9679 H         1 <0>         0.4452
     57 H21         4.9090    8.7268   10.8034 H         1 <0>         0.4469
     58 H22        10.2408    5.8948   10.7722 H         1 <0>         0.1520
     59 H23        11.7826    6.4234   12.6144 H         1 <0>         0.1684
     60 H24         8.8233    8.4896   14.6652 H         1 <0>         0.1651
     61 H25         7.1788    8.0443   12.8911 H         1 <0>         0.1333
@<TRIPOS>BOND
     1    1    2 1
     2    1   37 1
     3    1   38 1
     4    1   39 1
     5    2    7 ar
     6    2    3 ar
     7    3    4 ar
     8    3   40 1
     9    4    5 ar
    10    4   41 1
    11    5    6 ar
    12    5    9 1
    13    6    7 ar
    14    6    8 1
    15    7   42 1
    16    8   43 1
    17    8   44 1
    18    8   45 1
    19    9   10 1
    20    9   46 1
    21   10   11 2
    22   10   12 2
    23   10   13 1
    24   13   18 ar
    25   13   14 ar
    26   14   15 ar
    27   14   47 1
    28   15   16 ar
    29   15   48 1
    30   16   17 ar
    31   16   19 1
    32   17   18 ar
    33   17   49 1
    34   18   50 1
    35   19   20 am
    36   19   51 1
    37   20   21 2
    38   20   22 1
    39   22   23 1
    40   22   52 1
    41   22   53 1
    42   23   24 1
    43   23   54 1
    44   23   55 1
    45   24   25 1
    46   25   29 1
    47   25   26 2
    48   26   27 1
    49   27   28 2
    50   28   29 1
    51   28   31 1
    52   29   30 1
    53   30   56 1
    54   30   57 1
    55   31   36 ar
    56   31   32 ar
    57   32   33 ar
    58   32   58 1
    59   33   34 ar
    60   33   59 1
    61   34   35 ar
    62   35   36 ar
    63   35   60 1
    64   36   61 1
@<TRIPOS>MOLECULE
ZINC35051118
   57    59     0     0     0
SMALL
USER_CHARGES

@<TRIPOS>ATOM
      1 C1          1.2322   -0.0015   -1.9265 C.ar      1 <0>        -0.0862
      2 C2          2.5180    0.3993   -2.2336 C.ar      1 <0>        -0.1302
      3 C3          3.5566   -0.5199   -2.1995 C.ar      1 <0>         0.1218
      4 C4          3.3009   -1.8397   -1.8568 C.ar      1 <0>        -0.1393
      5 C5          2.0133   -2.2354   -1.5505 C.ar      1 <0>        -0.0904
      6 C6          0.9799   -1.3175   -1.5853 C.ar      1 <0>        -0.0935
      7 C7         -0.4237   -1.7519   -1.2502 C.3       1 <0>        -0.0843
      8 C8         -1.1326   -2.2139   -2.5250 C.3       1 <0>         0.1353
      9 H1         -0.5408   -2.9912   -3.0084 H         1 <0>         0.1303
     10 C9         -2.4914   -2.7627   -2.1734 C.2       1 <0>         0.5148
     11 O1         -3.4940   -2.2527   -2.6413 O.2       1 <0>        -0.4884
     12 N1         -2.5951   -3.7948   -1.3592 N.am      1 <0>        -0.6296
     13 C10        -3.8083   -4.3747   -1.1465 C.2       1 <0>         0.2844
     14 C11        -3.9941   -5.2215   -0.0394 C.2       1 <0>        -0.1390
     15 C12        -5.2002   -5.8058    0.1840 C.2       1 <0>        -0.0128
     16 C13        -6.2708   -5.5643   -0.6950 C.2       1 <0>        -0.1661
     17 C14        -7.5309   -6.1610   -0.4800 C.2       1 <0>         0.0551
     18 C15        -8.5492   -5.8911   -1.3724 C.2       1 <0>        -0.2078
     19 C16        -8.3189   -5.0490   -2.4508 C.2       1 <0>         0.4755
     20 O2         -9.3209   -4.7935   -3.3136 O.3       1 <0>        -0.3532
     21 O3         -7.1228   -4.4853   -2.6510 O.3       1 <0>        -0.1864
     22 C17        -6.0933   -4.7150   -1.8100 C.2       1 <0>         0.1996
     23 C18        -4.8626   -4.1209   -2.0252 C.2       1 <0>        -0.1788
     24 C19        -7.7604   -7.0733    0.6974 C.3       1 <0>         0.5078
     25 F1         -7.8800   -6.3091    1.8631 F         1 <0>        -0.1457
     26 F2         -8.9352   -7.8061    0.4975 F         1 <0>        -0.1485
     27 F3         -6.6788   -7.9516    0.8244 F         1 <0>        -0.1494
     28 N2         -1.2858   -1.0781   -3.4376 N.am      1 <0>        -0.7294
     29 C20        -0.2814   -0.7437   -4.2718 C.2       1 <0>         0.5150
     30 O4          0.7492   -1.3830   -4.2670 O.2       1 <0>        -0.4987
     31 C21        -0.4391    0.4246   -5.2105 C.3       1 <0>        -0.1379
     32 C22         0.8359    0.5876   -6.0404 C.3       1 <0>        -0.0748
     33 C23         0.6759    1.7737   -6.9935 C.3       1 <0>        -0.1844
     34 C24         1.9318    1.9343   -7.8109 C.2       1 <0>         0.4870
     35 O5          2.8680    1.1708   -7.6464 O.co2     1 <0>        -0.6930
     36 O6          2.0116    2.8277   -8.6367 O.co2     1 <0>        -0.7070
     37 O7          4.8224   -0.1282   -2.5017 O.3       1 <0>        -0.4935
     38 H2          0.4241    0.7146   -1.9485 H         1 <0>         0.1165
     39 H3          2.7146    1.4272   -2.5004 H         1 <0>         0.1283
     40 H4          4.1077   -2.5571   -1.8299 H         1 <0>         0.1254
     41 H5          1.8136   -3.2627   -1.2837 H         1 <0>         0.1174
     42 H6         -0.3887   -2.5741   -0.5356 H         1 <0>         0.0803
     43 H7         -0.9689   -0.9146   -0.8145 H         1 <0>         0.0852
     44 H8         -1.8071   -4.1408   -0.9119 H         1 <0>         0.4370
     45 H9         -3.1732   -5.4088    0.6369 H         1 <0>         0.1725
     46 H10        -5.3364   -6.4555    1.0359 H         1 <0>         0.1722
     47 H11        -9.5236   -6.3350   -1.2315 H         1 <0>         0.2118
     48 H12        -4.7170   -3.4667   -2.8721 H         1 <0>         0.2083
     49 H13        -2.1101   -0.5668   -3.4414 H         1 <0>         0.4078
     50 H14        -1.2845    0.2455   -5.8748 H         1 <0>         0.0875
     51 H15        -0.6159    1.3326   -4.6341 H         1 <0>         0.0878
     52 H16         1.6814    0.7667   -5.3762 H         1 <0>         0.0683
     53 H17         1.0128   -0.3204   -6.6169 H         1 <0>         0.0653
     54 H18        -0.1695    1.5946   -7.6578 H         1 <0>         0.0543
     55 H19         0.4991    2.6818   -6.4170 H         1 <0>         0.0549
     56 H20         5.3318    0.1785   -1.7391 H         1 <0>         0.3877
     57 H21        -9.0763   -4.1981   -4.0352 H         1 <0>         0.4532
@<TRIPOS>BOND
     1    1    6 ar
     2    1    2 ar
     3    1   38 1
     4    2    3 ar
     5    2   39 1
     6    3    4 ar
     7    3   37 1
     8    4    5 ar
     9    4   40 1
    10    5    6 ar
    11    5   41 1
    12    6    7 1
    13    7    8 1
    14    7   42 1
    15    7   43 1
    16    8    9 1
    17    8   10 1
    18    8   28 1
    19   10   11 2
    20   10   12 am
    21   12   13 2
    22   12   44 1
    23   13   23 1
    24   13   14 1
    25   14   15 2
    26   14   45 1
    27   15   16 1
    28   15   46 1
    29   16   22 1
    30   16   17 2
    31   17   18 1
    32   17   24 1
    33   18   19 2
    34   18   47 1
    35   19   20 1
    36   19   21 1
    37   20   57 1
    38   21   22 1
    39   22   23 2
    40   23   48 1
    41   24   25 1
    42   24   26 1
    43   24   27 1
    44   28   29 am
    45   28   49 1
    46   29   30 2
    47   29   31 1
    48   31   32 1
    49   31   50 1
    50   31   51 1
    51   32   33 1
    52   32   52 1
    53   32   53 1
    54   33   34 1
    55   33   54 1
    56   33   55 1
    57   34   35 2
    58   34   36 1
    59   37   56 1
@<TRIPOS>MOLECULE
ZINC39559494
   58    62     0     0     0
SMALL
USER_CHARGES

@<TRIPOS>ATOM
      1 C1         -0.0238    1.3870    0.0384 C.ar      1 <0>        -0.1057
      2 C2          1.1656    2.0912    0.0211 C.ar      1 <0>        -0.1225
      3 C3          2.3700    1.4132   -0.0016 C.ar      1 <0>        -0.0812
      4 C4          2.3851    0.0310   -0.0066 C.ar      1 <0>        -0.1175
      5 C5          1.1957   -0.6733    0.0116 C.ar      1 <0>        -0.0986
      6 C6         -0.0087    0.0047    0.0329 C.ar      1 <0>        -0.1236
      7 C7          3.6981   -0.7081   -0.0323 C.3       1 <0>         0.1713
      8 N1          4.1481   -0.9524    1.3403 N.pl3     1 <0>        -0.3520
      9 C8          4.4629   -2.1547    1.8475 C.2       1 <0>         0.0983
     10 C9          4.8402   -1.9740    3.1652 C.2       1 <0>        -0.2268
     11 C10         4.7296   -0.5340    3.4323 C.2       1 <0>         0.1796
     12 N2          4.3200    0.0321    2.3173 N.2       1 <0>        -0.2585
     13 C11         5.0266    0.1488    4.7073 C.2       1 <0>        -0.0961
     14 C12         5.5626    1.3923    4.9163 C.2       1 <0>        -0.1193
     15 C13         5.7504    1.8229    6.2111 C.2       1 <0>        -0.1608
     16 C14         5.4003    1.0057    7.2376 C.2       1 <0>        -0.1674
     17 S1          4.7733   -0.4278    6.3779 S.3       1 <0>         0.0926
     18 C15         5.2658   -3.0135    4.1087 C.2       1 <0>         0.0571
     19 C16         5.3176   -4.3054    3.7132 C.2       1 <0>        -0.2556
     20 C17         5.7287   -5.3096    4.6246 C.2       1 <0>         0.5606
     21 O1          6.0353   -5.0090    5.7640 O.2       1 <0>        -0.5489
     22 N3          5.7803   -6.5973    4.2304 N.am      1 <0>        -0.7217
     23 C18         6.2053   -7.6354    5.1726 C.3       1 <0>         0.1033
     24 C19         6.1759   -8.9777    4.4882 C.2       1 <0>         0.5118
     25 O2          5.8336   -9.0592    3.3274 O.2       1 <0>        -0.5164
     26 N4          6.5300  -10.0876    5.1658 N.am      1 <0>        -0.6650
     27 C20         6.4108  -11.3455    4.5609 C.ar      1 <0>         0.1514
     28 C21         6.0479  -12.4502    5.3230 C.ar      1 <0>        -0.1268
     29 C22         5.9287  -13.6923    4.7329 C.ar      1 <0>        -0.0839
     30 C23         6.1715  -13.8399    3.3756 C.ar      1 <0>         0.0775
     31 C24         6.5361  -12.7322    2.6074 C.ar      1 <0>         0.1085
     32 C25         6.6494  -11.4853    3.2019 C.ar      1 <0>        -0.1066
     33 N5          6.7095  -13.1868    1.3021 N.am      1 <0>        -0.6401
     34 H1          6.9651  -12.6425    0.5410 H         1 <0>         0.4370
     35 C26         6.4619  -14.5098    1.2765 C.2       1 <0>         0.6849
     36 O3          6.5244  -15.2153    0.2870 O.2       1 <0>        -0.5532
     37 N6          6.1347  -14.9341    2.5117 N.am      1 <0>        -0.6411
     38 H2          5.9118  -15.8453    2.7586 H         1 <0>         0.4367
     39 H3         -0.9647    1.9166    0.0606 H         1 <0>         0.1246
     40 H4          1.1538    3.1711    0.0250 H         1 <0>         0.1255
     41 H5          3.2992    1.9635   -0.0158 H         1 <0>         0.1247
     42 H6          1.2075   -1.7532    0.0074 H         1 <0>         0.1217
     43 H7         -0.9379   -0.5455    0.0467 H         1 <0>         0.1250
     44 H8          3.5691   -1.6602   -0.5472 H         1 <0>         0.1114
     45 H9          4.4421   -0.1090   -0.5574 H         1 <0>         0.1002
     46 H10         4.4276   -3.0963    1.3197 H         1 <0>         0.1878
     47 H11         5.8329    2.0225    4.0819 H         1 <0>         0.1369
     48 H12         6.1712    2.7979    6.4075 H         1 <0>         0.1387
     49 H13         5.4773    1.1800    8.3007 H         1 <0>         0.1906
     50 H14         5.5378   -2.7469    5.1193 H         1 <0>         0.1384
     51 H15         5.0456   -4.5720    2.7025 H         1 <0>         0.1237
     52 H16         5.5361   -6.8368    3.3227 H         1 <0>         0.4120
     53 H17         7.2187   -7.4237    5.5138 H         1 <0>         0.1046
     54 H18         5.5295   -7.6488    6.0277 H         1 <0>         0.1052
     55 H19         6.8674  -10.0154    6.0724 H         1 <0>         0.4188
     56 H20         5.8590  -12.3362    6.3803 H         1 <0>         0.1404
     57 H21         5.6470  -14.5485    5.3278 H         1 <0>         0.1392
     58 H22         6.9266  -10.6259    2.6094 H         1 <0>         0.1490
@<TRIPOS>BOND
     1    1    6 ar
     2    1    2 ar
     3    1   39 1
     4    2    3 ar
     5    2   40 1
     6    3    4 ar
     7    3   41 1
     8    4    5 ar
     9    4    7 1
    10    5    6 ar
    11    5   42 1
    12    6   43 1
    13    7    8 1
    14    7   44 1
    15    7   45 1
    16    8   12 1
    17    8    9 1
    18    9   10 2
    19    9   46 1
    20   10   11 1
    21   10   18 1
    22   11   12 2
    23   11   13 1
    24   13   17 1
    25   13   14 2
    26   14   15 1
    27   14   47 1
    28   15   16 2
    29   15   48 1
    30   16   17 1
    31   16   49 1
    32   18   19 2
    33   18   50 1
    34   19   20 1
    35   19   51 1
    36   20   21 2
    37   20   22 am
    38   22   23 1
    39   22   52 1
    40   23   24 1
    41   23   53 1
    42   23   54 1
    43   24   25 2
    44   24   26 am
    45   26   27 1
    46   26   55 1
    47   27   32 ar
    48   27   28 ar
    49   28   29 ar
    50   28   56 1
    51   29   30 ar
    52   29   57 1
    53   30   37 1
    54   30   31 ar
    55   31   32 ar
    56   31   33 1
    57   32   58 1
    58   33   34 1
    59   33   35 am
    60   35   36 2
    61   35   37 am
    62   37   38 1
@<TRIPOS>MOLECULE
ZINC12573816
   35    36     0     0     0
SMALL
USER_CHARGES

@<TRIPOS>ATOM
      1 C1         -0.0003    1.3785   -0.2041 C.ar      1 <0>         0.0548
      2 C2          1.1978    2.0626   -0.2646 C.ar      1 <0>        -0.1765
      3 C3          2.3942    1.3842   -0.0655 C.ar      1 <0>         0.3327
      4 C4          2.3800    0.0185    0.1939 C.ar      1 <0>        -0.1304
      5 C5          1.1784   -0.6587    0.2529 C.ar      1 <0>         0.0877
      6 C6         -0.0105    0.0200    0.0542 C.ar      1 <0>        -0.7227
      7 S1         -1.5416   -0.8486    0.1304 S.o2      1 <0>         2.7107
      8 O1         -1.3139   -2.0041    0.9255 O.2       1 <0>        -0.9560
      9 O2         -2.5382    0.1124    0.4507 O.2       1 <0>        -0.9511
     10 N1         -1.8765   -1.3856   -1.3999 N.pl3     1 <0>        -1.2458
     11 N2          3.6521   -0.7090    0.4063 N.pl3     1 <0>         0.0376
     12 O3          3.7848   -1.8320   -0.0212 O.2       1 <0>        -0.1241
     13 O4          4.5580   -0.1799    1.0072 O.3       1 <0>        -0.1781
     14 N3          3.6066    2.0718   -0.1263 N.pl3     1 <0>        -0.5637
     15 N4          3.6151    3.4648   -0.2763 N.2       1 <0>        -0.2431
     16 C7          4.7434    4.1047   -0.3330 C.2       1 <0>         0.1322
     17 C8          4.7523    5.5705   -0.4908 C.ar      1 <0>        -0.0571
     18 C9          3.5477    6.2736   -0.5739 C.ar      1 <0>        -0.0227
     19 C10         3.5607    7.6448   -0.7216 C.ar      1 <0>        -0.1229
     20 C11         4.7691    8.3269   -0.7877 C.ar      1 <0>         0.1854
     21 C12         5.9691    7.6318   -0.7059 C.ar      1 <0>        -0.1215
     22 C13         5.9654    6.2612   -0.5519 C.ar      1 <0>        -0.0282
     23 Br1         7.6101    8.5670   -0.7979 Br        1 <0>        -0.0104
     24 O5          4.7774    9.6782   -0.9333 O.3       1 <0>        -0.4717
     25 Br2         1.9313    8.5977   -0.8349 Br        1 <0>        -0.0116
     26 H1         -0.9307    1.9059   -0.3543 H         1 <0>         0.1651
     27 H2          1.2050    3.1235   -0.4668 H         1 <0>         0.1656
     28 H3          1.1666   -1.7197    0.4541 H         1 <0>         0.1699
     29 H4         -2.3844   -2.2022   -1.5270 H         1 <0>         0.4249
     30 H5         -1.5649   -0.8836   -2.1692 H         1 <0>         0.4183
     31 H6          4.4436    1.5855   -0.0648 H         1 <0>         0.4055
     32 H7          5.6753    3.5633   -0.2644 H         1 <0>         0.1361
     33 H8          2.6078    5.7441   -0.5230 H         1 <0>         0.1540
     34 H9          6.8987    5.7222   -0.4832 H         1 <0>         0.1531
     35 H10         4.7744   10.1638   -0.0971 H         1 <0>         0.4041
@<TRIPOS>BOND
     1    1    6 ar
     2    1    2 ar
     3    1   26 1
     4    2    3 ar
     5    2   27 1
     6    3    4 ar
     7    3   14 1
     8    4    5 ar
     9    4   11 1
    10    5    6 ar
    11    5   28 1
    12    6    7 1
    13    7    8 2
    14    7    9 2
    15    7   10 1
    16   10   29 1
    17   10   30 1
    18   11   12 2
    19   11   13 1
    20   14   15 1
    21   14   31 1
    22   15   16 2
    23   16   17 1
    24   16   32 1
    25   17   22 ar
    26   17   18 ar
    27   18   19 ar
    28   18   33 1
    29   19   20 ar
    30   19   25 1
    31   20   21 ar
    32   20   24 1
    33   21   22 ar
    34   21   23 1
    35   22   34 1
    36   24   35 1
@<TRIPOS>MOLECULE
ZINC09442449
   56    59     0     0     0
SMALL
USER_CHARGES
N'-(4-amino-5-oxo-6-tert-butyl-1,2,4-triazin-3-yl)-4-(benzothiazol-2-ylsulfanylmethyl)benzohydrazide
@<TRIPOS>ATOM
      1 C1         -1.9380   -4.4409    0.1667 C.3       1 <0>        -0.1324
      2 C2         -2.3115   -2.9580    0.2133 C.3       1 <0>         0.0119
      3 C3         -3.0098   -2.6494    1.5393 C.3       1 <0>        -0.1462
      4 C4         -3.2540   -2.6327   -0.9472 C.3       1 <0>        -0.1458
      5 C5         -1.0634   -2.1216    0.0964 C.2       1 <0>        -0.0090
      6 C6         -1.1459   -0.7120    0.1140 C.2       1 <0>         0.5274
      7 O1         -2.2219   -0.1485    0.2234 O.2       1 <0>        -0.4774
      8 N1          0.0019   -0.0041    0.0055 N.am      1 <0>        -0.3730
      9 C7          1.1756   -0.6828   -0.1205 C.2       1 <0>         0.5490
     10 N2          1.1878   -2.0045   -0.1248 N.2       1 <0>        -0.3770
     11 N3          0.1099   -2.6964   -0.0232 N.2       1 <0>        -0.1431
     12 N4          2.3508    0.0080   -0.2376 N.pl3     1 <0>        -0.4920
     13 N5          3.5484   -0.6812   -0.4688 N.am      1 <0>        -0.4971
     14 C8          4.7060   -0.0007   -0.5842 C.2       1 <0>         0.5664
     15 O2          4.7110    1.2110   -0.4875 O.2       1 <0>        -0.5275
     16 C9          5.9699   -0.7280   -0.8282 C.ar      1 <0>        -0.1196
     17 C10         5.9685   -2.1198   -0.9340 C.ar      1 <0>        -0.0800
     18 C11         7.1503   -2.7918   -1.1684 C.ar      1 <0>        -0.1008
     19 C12         8.3370   -2.0903   -1.2859 C.ar      1 <0>        -0.0478
     20 C13         8.3463   -0.7111   -1.1759 C.ar      1 <0>        -0.1027
     21 C14         7.1705   -0.0264   -0.9481 C.ar      1 <0>        -0.0483
     22 C15         9.6252   -2.8316   -1.5352 C.3       1 <0>        -0.1034
     23 S1         10.3884   -3.2643    0.0480 S.3       1 <0>         0.0786
     24 C16        11.8319   -4.0961   -0.5255 C.2       1 <0>         0.1148
     25 N6         12.7979   -4.6486    0.1742 N.2       1 <0>        -0.4802
     26 C17        13.8547   -5.2591   -0.4050 C.ar      1 <0>         0.0819
     27 C18        14.9525   -5.8883    0.2261 C.ar      1 <0>        -0.0586
     28 C19        15.9498   -6.4661   -0.5157 C.ar      1 <0>        -0.1087
     29 C20        15.9207   -6.4550   -1.9026 C.ar      1 <0>        -0.0905
     30 C21        14.8617   -5.8477   -2.5529 C.ar      1 <0>        -0.0678
     31 C22        13.8585   -5.2675   -1.8183 C.ar      1 <0>        -0.1351
     32 S2         12.3514   -4.4102   -2.2065 S.3       1 <0>        -0.0074
     33 N7         -0.0168    1.3617    0.0166 N.3       1 <0>        -0.5907
     34 H1         -1.2665   -4.6727    0.9934 H         1 <0>         0.0627
     35 H2         -2.8407   -5.0459    0.2513 H         1 <0>         0.0621
     36 H3         -1.4405   -4.6608   -0.7780 H         1 <0>         0.0620
     37 H4         -3.2759   -1.5929    1.5725 H         1 <0>         0.0704
     38 H5         -3.9126   -3.2544    1.6239 H         1 <0>         0.0681
     39 H6         -2.3383   -2.8812    2.3660 H         1 <0>         0.0547
     40 H7         -2.7565   -2.8525   -1.8918 H         1 <0>         0.0536
     41 H8         -4.1568   -3.2376   -0.8626 H         1 <0>         0.0686
     42 H9         -3.5201   -1.5762   -0.9140 H         1 <0>         0.0695
     43 H10         2.3548    0.9750   -0.1604 H         1 <0>         0.4406
     44 H11         3.5444   -1.6481   -0.5459 H         1 <0>         0.4417
     45 H12         5.0435   -2.6689   -0.8377 H         1 <0>         0.1358
     46 H13         7.1498   -3.8683   -1.2560 H         1 <0>         0.1410
     47 H14         9.2759   -0.1694   -1.2689 H         1 <0>         0.1408
     48 H15         7.1789    1.0503   -0.8632 H         1 <0>         0.1454
     49 H16         9.4177   -3.7410   -2.0991 H         1 <0>         0.1134
     50 H17        10.3047   -2.1978   -2.1050 H         1 <0>         0.1131
     51 H18        15.0057   -5.9141    1.3044 H         1 <0>         0.1359
     52 H19        16.7771   -6.9406   -0.0090 H         1 <0>         0.1379
     53 H20        16.7165   -6.9161   -2.4687 H         1 <0>         0.1420
     54 H21        14.8245   -5.8307   -3.6321 H         1 <0>         0.1357
     55 H22         0.9202    1.7362    0.0129 H         1 <0>         0.3620
     56 H23        -0.5533    1.7223   -0.7581 H         1 <0>         0.3753
@<TRIPOS>BOND
     1    1    2 1
     2    1   34 1
     3    1   35 1
     4    1   36 1
     5    2    3 1
     6    2    4 1
     7    2    5 1
     8    3   37 1
     9    3   38 1
    10    3   39 1
    11    4   40 1
    12    4   41 1
    13    4   42 1
    14    5   11 2
    15    5    6 1
    16    6    7 2
    17    6    8 am
    18    8    9 1
    19    8   33 1
    20    9   10 2
    21    9   12 1
    22   10   11 1
    23   12   13 1
    24   12   43 1
    25   13   14 am
    26   13   44 1
    27   14   15 2
    28   14   16 1
    29   16   21 ar
    30   16   17 ar
    31   17   18 ar
    32   17   45 1
    33   18   19 ar
    34   18   46 1
    35   19   20 ar
    36   19   22 1
    37   20   21 ar
    38   20   47 1
    39   21   48 1
    40   22   23 1
    41   22   49 1
    42   22   50 1
    43   23   24 1
    44   24   32 1
    45   24   25 2
    46   25   26 1
    47   26   31 ar
    48   26   27 ar
    49   27   28 ar
    50   27   51 1
    51   28   29 ar
    52   28   52 1
    53   29   30 ar
    54   29   53 1
    55   30   31 ar
    56   30   54 1
    57   31   32 1
    58   33   55 1
    59   33   56 1
@<TRIPOS>MOLECULE
ZINC19298751
   68    71     0     0     0
SMALL
USER_CHARGES
[2-(1-adamantylcarbamoylamino)-2-oxo-ethyl] 4-[(isopropylcarbamoylamino)methyl]benzoate
@<TRIPOS>ATOM
      1 C1          3.9692    2.1086    1.4126 C.3       1 <0>        -0.1650
      2 C2          3.5816    1.7473   -0.0228 C.3       1 <0>         0.1569
      3 C3          4.6829    0.8884   -0.6475 C.3       1 <0>        -0.1606
      4 N1          2.3230    0.9976   -0.0148 N.am      1 <0>        -0.7545
      5 C4          1.1468    1.6555   -0.0000 C.2       1 <0>         0.7067
      6 O1          1.1303    2.8713    0.0067 O.2       1 <0>        -0.5956
      7 N2         -0.0111    0.9658    0.0074 N.am      1 <0>        -0.7548
      8 C5         -1.2896    1.6810    0.0173 C.3       1 <0>         0.1775
      9 C6         -2.4216    0.6862    0.0173 C.ar      1 <0>        -0.0677
     10 C7         -2.9485    0.2425   -1.1828 C.ar      1 <0>        -0.1121
     11 C8         -3.9815   -0.6716   -1.1901 C.ar      1 <0>        -0.0587
     12 C9         -4.5026   -1.1411    0.0172 C.ar      1 <0>        -0.1207
     13 C10        -3.9697   -0.6851    1.2246 C.ar      1 <0>        -0.0530
     14 C11        -2.9333    0.2251    1.2173 C.ar      1 <0>        -0.1119
     15 C12        -5.6123   -2.1162    0.0172 C.2       1 <0>         0.5140
     16 O2         -6.0633   -2.5232    1.0691 O.2       1 <0>        -0.5008
     17 O3         -6.1241   -2.5542   -1.1495 O.3       1 <0>        -0.3279
     18 C13        -7.2129   -3.5117   -1.0735 C.3       1 <0>         0.0499
     19 C14        -7.6526   -3.8840   -2.4660 C.2       1 <0>         0.5210
     20 O4         -7.1026   -3.3910   -3.4274 O.2       1 <0>        -0.4453
     21 N3         -8.6571   -4.7649   -2.6427 N.am      1 <0>        -0.7031
     22 C15        -9.0503   -5.0978   -3.8881 C.2       1 <0>         0.6999
     23 O5         -8.4990   -4.6036   -4.8519 O.2       1 <0>        -0.5260
     24 N4        -10.0549   -5.9788   -4.0647 N.am      1 <0>        -0.7418
     25 C16       -10.4823   -6.3407   -5.4184 C.3       1 <0>         0.2046
     26 C17       -10.9564   -5.0868   -6.1559 C.3       1 <0>        -0.1252
     27 C18       -11.4027   -5.4647   -7.5697 C.3       1 <0>        -0.0824
     28 C19       -12.5501   -6.4737   -7.4896 C.3       1 <0>        -0.1123
     29 C20       -12.0760   -7.7276   -6.7522 C.3       1 <0>        -0.0805
     30 C21       -11.6296   -7.3497   -5.3384 C.3       1 <0>        -0.1131
     31 C22       -10.9009   -8.3505   -7.5086 C.3       1 <0>        -0.1122
     32 C23        -9.7536   -7.3414   -7.5886 C.3       1 <0>        -0.0825
     33 C24       -10.2277   -6.0875   -8.3261 C.3       1 <0>        -0.1112
     34 C25        -9.3072   -6.9635   -6.1748 C.3       1 <0>        -0.1250
     35 H1          3.1774    2.7261    1.8618 H         1 <0>         0.0600
     36 H2          4.9142    2.6715    1.4066 H         1 <0>         0.0649
     37 H3          4.0946    1.1879    2.0013 H         1 <0>         0.0556
     38 H4          3.4138    2.6561   -0.6193 H         1 <0>         0.0865
     39 H5          4.4043    0.6286   -1.6794 H         1 <0>         0.0615
     40 H6          4.8082   -0.0323   -0.0587 H         1 <0>         0.0614
     41 H7          5.6279    1.4513   -0.6535 H         1 <0>         0.0734
     42 H8          2.3379   -0.1023   -0.0209 H         1 <0>         0.4117
     43 H9          0.0038   -0.1341    0.0060 H         1 <0>         0.4160
     44 H10        -1.3522    2.3077    0.9191 H         1 <0>         0.0773
     45 H11        -1.3607    2.3174   -0.8771 H         1 <0>         0.0777
     46 H12        -2.5472    0.6096   -2.1159 H         1 <0>         0.1359
     47 H13        -4.3888   -1.0206   -2.1276 H         1 <0>         0.1444
     48 H14        -4.3679   -1.0445    2.1620 H         1 <0>         0.1413
     49 H15        -2.5200    0.5784    2.1505 H         1 <0>         0.1366
     50 H16        -6.8720   -4.4132   -0.5433 H         1 <0>         0.1110
     51 H17        -8.0577   -3.0639   -0.5297 H         1 <0>         0.1111
     52 H18        -9.1561   -5.2123   -1.7704 H         1 <0>         0.4342
     53 H19       -10.5539   -6.4261   -3.1924 H         1 <0>         0.4156
     54 H20       -11.8013   -4.6390   -5.6121 H         1 <0>         0.0592
     55 H21       -10.1316   -4.3613   -6.2134 H         1 <0>         0.0868
     56 H22       -11.7434   -4.5632   -8.0999 H         1 <0>         0.0726
     57 H23       -13.3949   -6.0259   -6.9457 H         1 <0>         0.0627
     58 H24       -12.8711   -6.7454   -8.5060 H         1 <0>         0.0656
     59 H25       -12.9009   -8.4530   -6.6947 H         1 <0>         0.0759
     60 H26       -11.2887   -8.2512   -4.8083 H         1 <0>         0.0695
     61 H27       -12.4744   -6.9020   -4.7945 H         1 <0>         0.0696
     62 H28       -10.5601   -9.2520   -6.9784 H         1 <0>         0.0627
     63 H29       -11.2218   -8.6223   -8.5250 H         1 <0>         0.0655
     64 H30        -8.9087   -7.7891   -8.1324 H         1 <0>         0.0726
     65 H31       -10.5487   -6.3592   -9.3425 H         1 <0>         0.0634
     66 H32        -9.4028   -5.3621   -8.3837 H         1 <0>         0.0657
     67 H33        -8.4823   -6.2380   -6.2323 H         1 <0>         0.0868
     68 H34        -8.9663   -7.8650   -5.6446 H         1 <0>         0.0591
@<TRIPOS>BOND
     1    1    2 1
     2    1   35 1
     3    1   36 1
     4    1   37 1
     5    2    3 1
     6    2    4 1
     7    2   38 1
     8    3   39 1
     9    3   40 1
    10    3   41 1
    11    4    5 am
    12    4   42 1
    13    5    6 2
    14    5    7 am
    15    7    8 1
    16    7   43 1
    17    8    9 1
    18    8   44 1
    19    8   45 1
    20    9   14 ar
    21    9   10 ar
    22   10   11 ar
    23   10   46 1
    24   11   12 ar
    25   11   47 1
    26   12   13 ar
    27   12   15 1
    28   13   14 ar
    29   13   48 1
    30   14   49 1
    31   15   16 2
    32   15   17 1
    33   17   18 1
    34   18   19 1
    35   18   50 1
    36   18   51 1
    37   19   20 2
    38   19   21 am
    39   21   22 am
    40   21   52 1
    41   22   23 2
    42   22   24 am
    43   24   25 1
    44   24   53 1
    45   25   30 1
    46   25   34 1
    47   25   26 1
    48   26   27 1
    49   26   54 1
    50   26   55 1
    51   27   33 1
    52   27   28 1
    53   27   56 1
    54   28   29 1
    55   28   57 1
    56   28   58 1
    57   29   30 1
    58   29   31 1
    59   29   59 1
    60   30   60 1
    61   30   61 1
    62   31   32 1
    63   31   62 1
    64   31   63 1
    65   32   33 1
    66   32   34 1
    67   32   64 1
    68   33   65 1
    69   33   66 1
    70   34   67 1
    71   34   68 1
@<TRIPOS>MOLECULE
ZINC21364381
   59    60     0     0     0
SMALL
USER_CHARGES
[(1R)-1-methyl-2-oxo-2-ureido-ethyl] 4-[(5-tert-butyl-2-methyl-phenyl)sulfonylamino]benzoate
@<TRIPOS>ATOM
      1 C1         -3.2398    1.0090    2.1354 C.3       1 <0>        -0.1662
      2 C2         -2.1965    1.5145    3.0983 C.ar      1 <0>         0.0168
      3 C3         -2.0899    0.9555    4.3583 C.ar      1 <0>        -0.1382
      4 C4         -1.1371    1.4233    5.2435 C.ar      1 <0>        -0.0579
      5 C5         -0.2866    2.4462    4.8668 C.ar      1 <0>        -0.0931
      6 C6         -0.3894    3.0012    3.6052 C.ar      1 <0>        -0.0100
      7 C7         -1.3428    2.5335    2.7198 C.ar      1 <0>        -0.6762
      8 S1         -1.4742    3.2414    1.1117 S.o2      1 <0>         2.6921
      9 O1         -0.4354    4.2051    1.0060 O.2       1 <0>        -0.9488
     10 O2         -2.8432    3.5734    0.9247 O.2       1 <0>        -0.9454
     11 N1         -1.1238    2.0461    0.0204 N.pl3     1 <0>        -1.0717
     12 C8          0.1283    1.4423    0.0291 C.ar      1 <0>         0.1935
     13 C9          1.2768    2.2259    0.1033 C.ar      1 <0>        -0.1684
     14 C10         2.5135    1.6339    0.1063 C.ar      1 <0>        -0.0303
     15 C11         2.6205    0.2413    0.0348 C.ar      1 <0>        -0.1423
     16 C12         1.4648   -0.5428   -0.0396 C.ar      1 <0>        -0.0314
     17 C13         0.2312    0.0556   -0.0422 C.ar      1 <0>        -0.1448
     18 C14         3.9482   -0.3986    0.0383 C.2       1 <0>         0.5162
     19 O3          4.0396   -1.6087   -0.0235 O.2       1 <0>        -0.5041
     20 O4          5.0608    0.3584    0.1101 O.3       1 <0>        -0.3270
     21 C15         6.3341   -0.3395    0.1090 C.3       1 <0>         0.0744
     22 H1          6.1989   -1.2572   -0.4823 H         1 <0>         0.1198
     23 C16         6.7406   -0.6612    1.5485 C.3       1 <0>        -0.1679
     24 C17         7.3850    0.5339   -0.5265 C.2       1 <0>         0.5220
     25 O5          7.1125    1.6685   -0.8554 O.2       1 <0>        -0.4437
     26 N2          8.6279    0.0536   -0.7293 N.am      1 <0>        -0.7010
     27 C18         9.5678    0.8346   -1.2976 C.2       1 <0>         0.6999
     28 O6          9.2946    1.9721   -1.6273 O.2       1 <0>        -0.5408
     29 N3         10.8106    0.3543   -1.5004 N.am      1 <0>        -0.8811
     30 C19         0.7523    2.9563    5.8320 C.3       1 <0>        -0.0293
     31 C20         0.5123    4.4433    6.1008 C.3       1 <0>        -0.1459
     32 C21         0.6537    2.1782    7.1456 C.3       1 <0>        -0.1480
     33 C22         2.1457    2.7654    5.2295 C.3       1 <0>        -0.1443
     34 H2         -3.8188    0.2040    2.6115 H         1 <0>         0.0850
     35 H3         -2.7473    0.6212    1.2315 H         1 <0>         0.0791
     36 H4         -3.9148    1.8329    1.8604 H         1 <0>         0.1046
     37 H5         -2.7540    0.1562    4.6524 H         1 <0>         0.1325
     38 H6         -1.0567    0.9896    6.2293 H         1 <0>         0.1359
     39 H7          0.2747    3.8004    3.3111 H         1 <0>         0.1424
     40 H8         -1.8818    1.7300   -0.7113 H         1 <0>         0.4585
     41 H9          1.1935    3.3013    0.1586 H         1 <0>         0.1644
     42 H10         3.4040    2.2423    0.1642 H         1 <0>         0.1485
     43 H11         1.5440   -1.6185   -0.0946 H         1 <0>         0.1437
     44 H12        -0.6616   -0.5494   -0.0993 H         1 <0>         0.1402
     45 H13         7.7052   -1.1899    1.5476 H         1 <0>         0.0846
     46 H14         5.9735   -1.2986    2.0124 H         1 <0>         0.0820
     47 H15         6.8354    0.2737    2.1204 H         1 <0>         0.0786
     48 H16         8.8752   -0.9759   -0.4310 H         1 <0>         0.4336
     49 H17        11.5777    0.9918   -1.9642 H         1 <0>         0.4452
     50 H18        11.0578   -0.6752   -1.2021 H         1 <0>         0.4174
     51 H19         1.2706    4.8156    6.8053 H         1 <0>         0.0640
     52 H20        -0.4895    4.5806    6.5340 H         1 <0>         0.0583
     53 H21         0.5832    5.0027    5.1563 H         1 <0>         0.0602
     54 H22         1.4120    2.5505    7.8501 H         1 <0>         0.0634
     55 H23         0.8263    1.1091    6.9523 H         1 <0>         0.0595
     56 H24        -0.3481    2.3155    7.5788 H         1 <0>         0.0598
     57 H25         2.9040    3.1377    5.9341 H         1 <0>         0.0634
     58 H26         2.2166    3.3249    4.2851 H         1 <0>         0.0608
     59 H27         2.3183    1.6963    5.0363 H         1 <0>         0.0575
@<TRIPOS>BOND
     1    1    2 1
     2    1   34 1
     3    1   35 1
     4    1   36 1
     5    2    7 ar
     6    2    3 ar
     7    3    4 ar
     8    3   37 1
     9    4    5 ar
    10    4   38 1
    11    5    6 ar
    12    5   30 1
    13    6    7 ar
    14    6   39 1
    15    7    8 1
    16    8    9 2
    17    8   10 2
    18    8   11 1
    19   11   12 1
    20   11   40 1
    21   12   17 ar
    22   12   13 ar
    23   13   14 ar
    24   13   41 1
    25   14   15 ar
    26   14   42 1
    27   15   16 ar
    28   15   18 1
    29   16   17 ar
    30   16   43 1
    31   17   44 1
    32   18   19 2
    33   18   20 1
    34   20   21 1
    35   21   22 1
    36   21   23 1
    37   21   24 1
    38   23   45 1
    39   23   46 1
    40   23   47 1
    41   24   25 2
    42   24   26 am
    43   26   27 am
    44   26   48 1
    45   27   28 2
    46   27   29 am
    47   29   49 1
    48   29   50 1
    49   30   31 1
    50   30   32 1
    51   30   33 1
    52   31   51 1
    53   31   52 1
    54   31   53 1
    55   32   54 1
    56   32   55 1
    57   32   56 1
    58   33   57 1
    59   33   58 1
    60   33   59 1
@<TRIPOS>MOLECULE
ZINC39361870
   57    60     0     0     0
SMALL
USER_CHARGES

@<TRIPOS>ATOM
      1 C1         -0.0066    1.5058    0.0301 C.3       1 <0>        -0.1166
      2 C2          0.0080   -0.0011    0.0129 C.ar      1 <0>        -0.0822
      3 C3          0.0064   -0.6781   -1.1933 C.ar      1 <0>        -0.1015
      4 C4          0.0198   -2.0606   -1.2137 C.ar      1 <0>        -0.1086
      5 C5          0.0347   -2.7703   -0.0289 C.ar      1 <0>        -0.0724
      6 C6          0.0368   -2.0935    1.1842 C.ar      1 <0>         0.1494
      7 C7          0.0287   -0.7042    1.2010 C.ar      1 <0>        -0.1039
      8 N1          0.0515   -2.8083    2.3847 N.pl3     1 <0>        -0.5776
      9 C8          1.2411   -3.2429    3.1362 C.3       1 <0>         0.3809
     10 H1          1.8465   -3.9213    2.5351 H         1 <0>         0.0834
     11 N2          0.6843   -3.9452    4.3053 N.pl3     1 <0>        -0.6631
     12 N3         -0.7080   -3.8811    4.1723 N.2       1 <0>        -0.3027
     13 C9         -1.0521   -3.2424    3.1053 C.2       1 <0>         0.2669
     14 S1         -2.7219   -2.9598    2.6192 S.3       1 <0>         0.0791
     15 C10        -3.6995   -3.7451    3.9300 C.3       1 <0>        -0.1520
     16 C11        -5.1670   -3.5743    3.6330 C.2       1 <0>         0.5366
     17 O1         -5.5189   -2.9813    2.6352 O.2       1 <0>        -0.4982
     18 N4         -6.0886   -4.0807    4.4762 N.am      1 <0>        -0.6663
     19 C12        -7.4491   -3.8395    4.2527 C.ar      1 <0>         0.1457
     20 C13        -8.3106   -3.6663    5.3279 C.ar      1 <0>        -0.1291
     21 C14        -9.6526   -3.4285    5.1046 C.ar      1 <0>        -0.0912
     22 C15       -10.1390   -3.3628    3.8108 C.ar      1 <0>        -0.0468
     23 C16        -9.2827   -3.5350    2.7375 C.ar      1 <0>        -0.0907
     24 C17        -7.9387   -3.7674    2.9552 C.ar      1 <0>        -0.1070
     25 Cl1       -11.8266   -3.0643    3.5336 Cl        1 <0>        -0.0668
     26 C18         2.0692   -2.0340    3.5765 C.3       1 <0>        -0.1242
     27 C19         3.3395   -2.5079    4.2342 C.2       1 <0>         0.2050
     28 N5          3.3450   -2.8354    5.5628 N.am      1 <0>        -0.6360
     29 C20         4.4738   -3.2599    6.1593 C.2       1 <0>         0.7012
     30 O2          4.4562   -3.5457    7.3410 O.2       1 <0>        -0.5353
     31 N6          5.6220   -3.3733    5.4662 N.am      1 <0>        -0.6587
     32 C21         5.6582   -3.0604    4.1552 C.2       1 <0>         0.5507
     33 O3          6.6967   -3.1626    3.5274 O.2       1 <0>        -0.5082
     34 C22         4.4765   -2.6168    3.5140 C.2       1 <0>        -0.2840
     35 C23         0.0483   -4.2770   -0.0522 C.3       1 <0>        -0.1142
     36 H2          1.0175    1.8791    0.0224 H         1 <0>         0.0725
     37 H3         -0.5343    1.8741   -0.8496 H         1 <0>         0.0700
     38 H4         -0.5134    1.8539    0.9301 H         1 <0>         0.0677
     39 H5         -0.0056   -0.1256   -2.1212 H         1 <0>         0.1278
     40 H6          0.0181   -2.5861   -2.1573 H         1 <0>         0.1298
     41 H7          0.0341   -0.1748    2.1424 H         1 <0>         0.1253
     42 H8          1.1822   -4.3671    5.0230 H         1 <0>         0.4424
     43 H9         -3.4592   -4.8073    3.9757 H         1 <0>         0.1284
     44 H10        -3.4657   -3.2782    4.8868 H         1 <0>         0.1283
     45 H11        -5.8090   -4.6122    5.2379 H         1 <0>         0.4168
     46 H12        -7.9316   -3.7179    6.3379 H         1 <0>         0.1369
     47 H13       -10.3231   -3.2941    5.9406 H         1 <0>         0.1392
     48 H14        -9.6648   -3.4836    1.7287 H         1 <0>         0.1388
     49 H15        -7.2700   -3.8973    2.1172 H         1 <0>         0.1495
     50 H16         2.3156   -1.4260    2.7061 H         1 <0>         0.1170
     51 H17         1.4937   -1.4380    4.2849 H         1 <0>         0.0996
     52 H18         6.4268   -3.6809    5.9118 H         1 <0>         0.4332
     53 H19         4.4851   -2.3655    2.4637 H         1 <0>         0.1727
     54 H20         2.5275   -2.7604    6.0794 H         1 <0>         0.4345
     55 H21         1.0791   -4.6310   -0.0652 H         1 <0>         0.0703
     56 H22        -0.4558   -4.6587    0.8357 H         1 <0>         0.0666
     57 H23        -0.4688   -4.6313   -0.9440 H         1 <0>         0.0709
@<TRIPOS>BOND
     1    1    2 1
     2    1   36 1
     3    1   37 1
     4    1   38 1
     5    2    7 ar
     6    2    3 ar
     7    3    4 ar
     8    3   39 1
     9    4    5 ar
    10    4   40 1
    11    5    6 ar
    12    5   35 1
    13    6    7 ar
    14    6    8 1
    15    7   41 1
    16    8   13 1
    17    8    9 1
    18    9   10 1
    19    9   11 1
    20    9   26 1
    21   11   12 1
    22   11   42 1
    23   12   13 2
    24   13   14 1
    25   14   15 1
    26   15   16 1
    27   15   43 1
    28   15   44 1
    29   16   17 2
    30   16   18 am
    31   18   19 1
    32   18   45 1
    33   19   24 ar
    34   19   20 ar
    35   20   21 ar
    36   20   46 1
    37   21   22 ar
    38   21   47 1
    39   22   23 ar
    40   22   25 1
    41   23   24 ar
    42   23   48 1
    43   24   49 1
    44   26   50 1
    45   26   51 1
    46   26   27 1
    47   27   34 2
    48   27   28 1
    49   28   29 am
    50   28   54 1
    51   29   30 2
    52   29   31 am
    53   31   52 1
    54   31   32 am
    55   32   33 2
    56   32   34 1
    57   34   53 1
    58   35   55 1
    59   35   56 1
    60   35   57 1
@<TRIPOS>MOLECULE
ZINC23154056
   55    57     0     0     0
SMALL
USER_CHARGES

@<TRIPOS>ATOM
      1 C1         10.4597  -10.5537    1.3335 C.3       1 <0>        -0.1537
      2 C2          9.0642  -10.1579    0.8469 C.3       1 <0>         0.0530
      3 O1          8.3279   -9.5831    1.9284 O.3       1 <0>        -0.3145
      4 C3          7.0582   -9.1746    1.6627 C.ar      1 <0>         0.1242
      5 C4          6.5324   -9.3301    0.3887 C.ar      1 <0>        -0.1856
      6 C5          5.2431   -8.9156    0.1181 C.ar      1 <0>        -0.0852
      7 C6          4.4732   -8.3429    1.1218 C.ar      1 <0>         0.1173
      8 C7          5.0004   -8.1876    2.3970 C.ar      1 <0>        -0.1199
      9 C8          6.2879   -8.6079    2.6674 C.ar      1 <0>        -0.1210
     10 N1          3.1668   -7.9222    0.8483 N.pl3     1 <0>        -1.0546
     11 S1          1.9367   -8.3132    1.8857 S.o2      1 <0>         2.6938
     12 O2          0.7481   -7.7673    1.3304 O.2       1 <0>        -0.9440
     13 O3          2.0757   -9.6971    2.1772 O.2       1 <0>        -0.9439
     14 C9          2.2316   -7.4491    3.3927 C.ar      1 <0>        -0.6659
     15 C10         2.4889   -8.1533    4.5528 C.ar      1 <0>        -0.0431
     16 C11         2.7216   -7.4715    5.7400 C.ar      1 <0>         0.1219
     17 C12         2.6948   -6.0827    5.7566 C.ar      1 <0>        -0.0551
     18 C13         2.4369   -5.3848    4.5933 C.ar      1 <0>        -0.1192
     19 C14         2.2108   -6.0668    3.4116 C.ar      1 <0>         0.0101
     20 C15         1.9358   -5.3016    2.1427 C.3       1 <0>        -0.1413
     21 N2          2.9820   -8.1815    6.9164 N.am      1 <0>        -0.6688
     22 C16         3.8506   -7.6896    7.8221 C.2       1 <0>         0.5723
     23 O4          4.3448   -6.5910    7.6563 O.2       1 <0>        -0.5131
     24 C17         4.2016   -8.4840    9.0142 C.ar      1 <0>        -0.1976
     25 C18         3.6387   -9.7499    9.2033 C.ar      1 <0>         0.0080
     26 C19         3.9685  -10.4885   10.3162 C.ar      1 <0>        -0.1996
     27 C20         4.8616   -9.9766   11.2538 C.ar      1 <0>         0.3097
     28 C21         5.4235   -8.7166   11.0687 C.ar      1 <0>        -0.1349
     29 C22         5.1023   -7.9753    9.9545 C.ar      1 <0>         0.0547
     30 N3          6.3717   -8.1758   12.0684 N.pl3     1 <0>         0.0411
     31 O5          6.3569   -6.9978   12.3402 O.2       1 <0>        -0.1384
     32 O6          7.1609   -8.9120   12.6132 O.3       1 <0>        -0.1733
     33 N4          5.1926  -10.7255   12.3777 N.pl3     1 <0>        -0.8390
     34 H1         10.3705  -11.2817    2.1397 H         1 <0>         0.0669
     35 H2         11.0213  -10.9921    0.5085 H         1 <0>         0.0798
     36 H3         10.9816   -9.6691    1.6987 H         1 <0>         0.0670
     37 H4          9.1534   -9.4298    0.0407 H         1 <0>         0.0634
     38 H5          8.5424  -11.0424    0.4817 H         1 <0>         0.0637
     39 H6          7.1315   -9.7752   -0.3919 H         1 <0>         0.1353
     40 H7          4.8339   -9.0364   -0.8741 H         1 <0>         0.1345
     41 H8          4.4023   -7.7424    3.1783 H         1 <0>         0.1380
     42 H9          6.6965   -8.4916    3.6603 H         1 <0>         0.1364
     43 H10         2.9819   -7.4015    0.0511 H         1 <0>         0.4266
     44 H11         2.5087   -9.2330    4.5367 H         1 <0>         0.1496
     45 H12         2.8750   -5.5495    6.6783 H         1 <0>         0.1507
     46 H13         2.4159   -4.3050    4.6056 H         1 <0>         0.1405
     47 H14         0.8722   -5.0716    2.0803 H         1 <0>         0.0992
     48 H15         2.5086   -4.3742    2.1463 H         1 <0>         0.0879
     49 H16         2.2279   -5.9057    1.2836 H         1 <0>         0.0608
     50 H17         2.5375   -9.0278    7.0806 H         1 <0>         0.4130
     51 H18         2.9453  -10.1472    8.4768 H         1 <0>         0.1454
     52 H19         3.5341  -11.4664   10.4629 H         1 <0>         0.1548
     53 H20         5.5423   -6.9998    9.8090 H         1 <0>         0.1620
     54 H21         4.8721  -11.6369   12.4649 H         1 <0>         0.4149
     55 H22         5.7440  -10.3366   13.0746 H         1 <0>         0.4149
@<TRIPOS>BOND
     1    1    2 1
     2    1   34 1
     3    1   35 1
     4    1   36 1
     5    2    3 1
     6    2   37 1
     7    2   38 1
     8    3    4 1
     9    4    9 ar
    10    4    5 ar
    11    5    6 ar
    12    5   39 1
    13    6    7 ar
    14    6   40 1
    15    7    8 ar
    16    7   10 1
    17    8    9 ar
    18    8   41 1
    19    9   42 1
    20   10   11 1
    21   10   43 1
    22   11   12 2
    23   11   13 2
    24   11   14 1
    25   14   19 ar
    26   14   15 ar
    27   15   16 ar
    28   15   44 1
    29   16   17 ar
    30   16   21 1
    31   17   18 ar
    32   17   45 1
    33   18   19 ar
    34   18   46 1
    35   19   20 1
    36   20   47 1
    37   20   48 1
    38   20   49 1
    39   21   22 am
    40   21   50 1
    41   22   23 2
    42   22   24 1
    43   24   29 ar
    44   24   25 ar
    45   25   26 ar
    46   25   51 1
    47   26   27 ar
    48   26   52 1
    49   27   28 ar
    50   27   33 1
    51   28   29 ar
    52   28   30 1
    53   29   53 1
    54   30   31 2
    55   30   32 1
    56   33   54 1
    57   33   55 1
@<TRIPOS>MOLECULE
ZINC03134981
   45    46     0     0     0
SMALL
USER_CHARGES
1-[1-[N'-[3-chloro-5-(trifluoromethyl)-2-pyridyl]-N'-methyl-hydrazino]-2-cyano-vinyl]-3-[3-(trifluoromethyl)phenyl]-urea
@<TRIPOS>ATOM
      1 C1         -2.3177    6.2897    9.4277 C.3       1 <0>         0.1179
      2 N1         -2.4555    4.8605    9.1367 N.pl3     1 <0>        -0.4553
      3 C2         -3.2162    4.0508    9.9732 C.ar      1 <0>         0.4132
      4 C3         -4.5507    3.8003    9.6646 C.ar      1 <0>        -0.0806
      5 C4         -5.2940    2.9888   10.5036 C.ar      1 <0>        -0.0124
      6 C5         -4.6789    2.4619   11.6319 C.ar      1 <0>        -0.2248
      7 C6         -3.3534    2.7562   11.8790 C.ar      1 <0>         0.1688
      8 N2         -2.6667    3.5293   11.0587 N.ar      1 <0>        -0.4590
      9 C7         -5.4510    1.5774   12.5766 C.3       1 <0>         0.5191
     10 F1         -4.6176    1.1765   13.6263 F         1 <0>        -0.1693
     11 F2         -6.5421    2.2855   13.0917 F         1 <0>        -0.1697
     12 F3         -5.9101    0.4490   11.8887 F         1 <0>        -0.1703
     13 Cl1        -5.2702    4.4915    8.2440 Cl        1 <0>        -0.0201
     14 N3         -1.8211    4.3096    8.0157 N.pl3     1 <0>        -0.4865
     15 C8         -0.4642    4.0971    8.0297 C.2       1 <0>         0.4695
     16 C9          0.2476    4.3168    9.1696 C.2       1 <0>        -0.2826
     17 C10         1.6623    4.0953    9.1843 C.1       1 <0>         0.2603
     18 N4          2.7845    3.9196    9.1959 N.1       1 <0>        -0.4622
     19 N5          0.1775    3.6612    6.8892 N.am      1 <0>        -0.6671
     20 C11        -0.5389    3.3420    5.7931 C.2       1 <0>         0.7170
     21 O1         -1.7393    3.5332    5.7746 O.2       1 <0>        -0.5490
     22 N6          0.0755    2.8109    4.7175 N.am      1 <0>        -0.6687
     23 C12        -0.6501    2.5689    3.5458 C.ar      1 <0>         0.1511
     24 C13        -1.9765    2.1635    3.6198 C.ar      1 <0>        -0.0842
     25 C14        -2.6900    1.9260    2.4616 C.ar      1 <0>        -0.0985
     26 C15        -2.0868    2.0969    1.2287 C.ar      1 <0>        -0.0777
     27 C16        -0.7650    2.4949    1.1518 C.ar      1 <0>        -0.1628
     28 C17        -0.0458    2.7341    2.3066 C.ar      1 <0>        -0.0914
     29 C18        -0.1100    2.6738   -0.1936 C.3       1 <0>         0.5099
     30 F4          0.4793    1.4683   -0.5894 F         1 <0>        -0.1740
     31 F5          0.8722    3.6662   -0.1057 F         1 <0>        -0.1760
     32 F6         -1.0732    3.0531   -1.1345 F         1 <0>        -0.1736
     33 H1         -3.1657    6.8297    9.0067 H         1 <0>         0.0574
     34 H2         -2.2910    6.4398   10.5070 H         1 <0>         0.0734
     35 H3         -1.3937    6.6629    8.9861 H         1 <0>         0.0815
     36 H4         -6.3301    2.7734   10.2881 H         1 <0>         0.1619
     37 H5         -2.8714    2.3481   12.7551 H         1 <0>         0.1827
     38 H6         -2.3401    4.0781    7.2295 H         1 <0>         0.4370
     39 H7         -0.2548    4.6581   10.0626 H         1 <0>         0.1713
     40 H8          1.1444    3.5843    6.8759 H         1 <0>         0.4279
     41 H9          1.0207    2.5964    4.7557 H         1 <0>         0.4189
     42 H10        -2.4494    2.0346    4.5821 H         1 <0>         0.1512
     43 H11        -3.7215    1.6111    2.5184 H         1 <0>         0.1431
     44 H12        -2.6484    1.9151    0.3243 H         1 <0>         0.1410
     45 H13         0.9855    3.0489    2.2458 H         1 <0>         0.1418
@<TRIPOS>BOND
     1    1    2 1
     2    1   33 1
     3    1   34 1
     4    1   35 1
     5    2    3 1
     6    2   14 1
     7    3    8 ar
     8    3    4 ar
     9    4    5 ar
    10    4   13 1
    11    5    6 ar
    12    5   36 1
    13    6    7 ar
    14    6    9 1
    15    7    8 ar
    16    7   37 1
    17    9   10 1
    18    9   11 1
    19    9   12 1
    20   14   15 1
    21   14   38 1
    22   15   16 2
    23   15   19 1
    24   16   17 1
    25   16   39 1
    26   17   18 3
    27   19   20 am
    28   19   40 1
    29   20   21 2
    30   20   22 am
    31   22   23 1
    32   22   41 1
    33   23   28 ar
    34   23   24 ar
    35   24   25 ar
    36   24   42 1
    37   25   26 ar
    38   25   43 1
    39   26   27 ar
    40   26   44 1
    41   27   28 ar
    42   27   29 1
    43   28   45 1
    44   29   30 1
    45   29   31 1
    46   29   32 1
@<TRIPOS>MOLECULE
ZINC16611030
   57    59     0     0     0
SMALL
USER_CHARGES
ethyl (4R)-4-[3-[(4-bromophenyl)carbamoylamino]phenyl]-1-ethyl-6-methyl-2-thioxo-3,4-dihydropyrimidine-5-carboxylate
@<TRIPOS>ATOM
      1 C1         15.5406    0.3685    1.0458 C.3       1 <0>        -0.1684
      2 C2         14.2876    1.1959    1.3398 C.3       1 <0>         0.0737
      3 N1         13.1229    0.5530    0.7264 N.pl3     1 <0>        -0.4911
      4 C3         12.4925   -0.4367    1.4231 C.2       1 <0>         0.2418
      5 C4         11.4133   -1.0696    0.9133 C.2       1 <0>        -0.2638
      6 C5         10.9271   -0.6422   -0.4568 C.3       1 <0>         0.2227
      7 H1         10.9449   -1.5168   -1.1070 H         1 <0>         0.1020
      8 N2         11.6769    0.4352   -1.1243 N.pl3     1 <0>        -0.6461
      9 C6         12.7366    0.9699   -0.4859 C.2       1 <0>         0.5489
     10 S1         13.6173    2.2236   -1.2498 S.2       1 <0>        -0.5867
     11 C7          9.4937   -0.1968   -0.3230 C.ar      1 <0>        -0.0998
     12 C8          9.2059    1.1137    0.0125 C.ar      1 <0>        -0.1105
     13 C9          7.8922    1.5263    0.1361 C.ar      1 <0>        -0.1018
     14 C10         6.8625    0.6301   -0.0753 C.ar      1 <0>        -0.1047
     15 C11         7.1480   -0.6863   -0.4122 C.ar      1 <0>         0.1556
     16 C12         8.4689   -1.0990   -0.5301 C.ar      1 <0>        -0.0978
     17 N3          6.1072   -1.5966   -0.6271 N.am      1 <0>        -0.6787
     18 C13         4.9831   -1.5220    0.1128 C.2       1 <0>         0.7053
     19 O1          4.8411   -0.6178    0.9132 O.2       1 <0>        -0.5508
     20 N4          4.0166   -2.4496   -0.0345 N.am      1 <0>        -0.6821
     21 C14         2.8126   -2.3235    0.6682 C.ar      1 <0>         0.1756
     22 C15         1.6185   -2.7164    0.0782 C.ar      1 <0>        -0.1387
     23 C16         0.4319   -2.5904    0.7737 C.ar      1 <0>        -0.0707
     24 C17         0.4322   -2.0730    2.0569 C.ar      1 <0>        -0.1050
     25 C18         1.6206   -1.6808    2.6471 C.ar      1 <0>        -0.0709
     26 C19         2.8101   -1.8049    1.9564 C.ar      1 <0>        -0.1121
     27 Br1        -1.1954   -1.8942    3.0028 Br        1 <0>        -0.0483
     28 C20        10.7596   -2.0960    1.6338 C.2       1 <0>         0.5357
     29 O2         11.1676   -2.4229    2.7326 O.2       1 <0>        -0.5098
     30 O3          9.6833   -2.7130    1.1027 O.3       1 <0>        -0.3428
     31 C21         9.0726   -3.7406    1.8857 C.3       1 <0>         0.0633
     32 C22         7.8776   -4.3190    1.1252 C.3       1 <0>        -0.1524
     33 C23        13.0089   -0.8304    2.7830 C.3       1 <0>        -0.1301
     34 H2         16.4072    0.8468    1.5022 H         1 <0>         0.0844
     35 H3         15.4194   -0.6333    1.4581 H         1 <0>         0.0582
     36 H4         15.6877    0.3024   -0.0322 H         1 <0>         0.0712
     37 H5         14.4088    2.1976    0.9276 H         1 <0>         0.1358
     38 H6         14.1405    1.2619    2.4178 H         1 <0>         0.0999
     39 H7         11.4146    0.7523   -2.0027 H         1 <0>         0.4474
     40 H8         10.0092    1.8164    0.1779 H         1 <0>         0.1149
     41 H9          7.6707    2.5502    0.3986 H         1 <0>         0.1280
     42 H10         5.8364    0.9529    0.0218 H         1 <0>         0.1412
     43 H11         8.6943   -2.1234   -0.7874 H         1 <0>         0.1361
     44 H12         6.1946   -2.2813   -1.3086 H         1 <0>         0.4089
     45 H13         4.1552   -3.2046   -0.6275 H         1 <0>         0.4107
     46 H14         1.6176   -3.1197   -0.9236 H         1 <0>         0.1355
     47 H15        -0.4971   -2.8958    0.3153 H         1 <0>         0.1381
     48 H16         1.6180   -1.2772    3.6488 H         1 <0>         0.1369
     49 H17         3.7374   -1.4990    2.4176 H         1 <0>         0.1486
     50 H18         9.7983   -4.5310    2.0775 H         1 <0>         0.0685
     51 H19         8.7324   -3.3220    2.8328 H         1 <0>         0.0669
     52 H20         7.4117   -5.1028    1.7225 H         1 <0>         0.0795
     53 H21         7.1519   -3.5286    0.9334 H         1 <0>         0.0626
     54 H22         8.2177   -4.7376    0.1780 H         1 <0>         0.0664
     55 H23        13.9292   -0.2857    2.9938 H         1 <0>         0.0816
     56 H24        12.2621   -0.5886    3.5392 H         1 <0>         0.1058
     57 H25        13.2090   -1.9018    2.7995 H         1 <0>         0.1115
@<TRIPOS>BOND
     1    1    2 1
     2    1   34 1
     3    1   35 1
     4    1   36 1
     5    2    3 1
     6    2   37 1
     7    2   38 1
     8    3    9 1
     9    3    4 1
    10    4    5 2
    11    4   33 1
    12    5    6 1
    13    5   28 1
    14    6    7 1
    15    6    8 1
    16    6   11 1
    17    8    9 1
    18    8   39 1
    19    9   10 2
    20   11   16 ar
    21   11   12 ar
    22   12   13 ar
    23   12   40 1
    24   13   14 ar
    25   13   41 1
    26   14   15 ar
    27   14   42 1
    28   15   16 ar
    29   15   17 1
    30   16   43 1
    31   17   18 am
    32   17   44 1
    33   18   19 2
    34   18   20 am
    35   20   21 1
    36   20   45 1
    37   21   26 ar
    38   21   22 ar
    39   22   23 ar
    40   22   46 1
    41   23   24 ar
    42   23   47 1
    43   24   25 ar
    44   24   27 1
    45   25   26 ar
    46   25   48 1
    47   26   49 1
    48   28   29 2
    49   28   30 1
    50   30   31 1
    51   31   32 1
    52   31   50 1
    53   31   51 1
    54   32   52 1
    55   32   53 1
    56   32   54 1
    57   33   55 1
    58   33   56 1
    59   33   57 1
@<TRIPOS>MOLECULE
ZINC22834026
   50    52     0     0     0
SMALL
USER_CHARGES
[2-[(4-carbamoylphenyl)amino]-2-oxo-ethyl] 2-[(2-bromophenyl)methoxy]benzoate
@<TRIPOS>ATOM
      1 C1          7.9440   -3.1316    0.6110 C.ar      1 <0>        -0.1030
      2 C2          9.1899   -3.7242    0.7021 C.ar      1 <0>        -0.1110
      3 C3         10.3290   -2.9417    0.7045 C.ar      1 <0>        -0.0903
      4 C4         10.2226   -1.5652    0.6153 C.ar      1 <0>        -0.0866
      5 C5          8.9762   -0.9729    0.5237 C.ar      1 <0>        -0.0671
      6 C6          7.8370   -1.7561    0.5267 C.ar      1 <0>        -0.0892
      7 C7          8.8595    0.5265    0.4270 C.3       1 <0>         0.0894
      8 O1          7.4808    0.8926    0.3433 O.3       1 <0>        -0.2789
      9 C8          7.1997    2.2163    0.2500 C.ar      1 <0>         0.1958
     10 C9          8.2275    3.1477    0.2384 C.ar      1 <0>        -0.2240
     11 C10         7.9400    4.4946    0.1429 C.ar      1 <0>        -0.0363
     12 C11         6.6262    4.9268    0.0581 C.ar      1 <0>        -0.1702
     13 C12         5.5929    4.0157    0.0625 C.ar      1 <0>        -0.0204
     14 C13         5.8691    2.6494    0.1645 C.ar      1 <0>        -0.1645
     15 C14         4.7682    1.6693    0.1759 C.2       1 <0>         0.5153
     16 O2          5.0127    0.4820    0.2597 O.2       1 <0>        -0.4882
     17 O3          3.4907    2.0900    0.0934 O.3       1 <0>        -0.3316
     18 C15         2.4582    1.0692    0.1104 C.3       1 <0>         0.0508
     19 C16         1.1040    1.7228    0.0102 C.2       1 <0>         0.5188
     20 O4          1.0176    2.9300   -0.0678 O.2       1 <0>        -0.4958
     21 N1         -0.0111    0.9658    0.0074 N.am      1 <0>        -0.6832
     22 C17        -1.2662    1.5733    0.0051 C.ar      1 <0>         0.1769
     23 C18        -1.4585    2.7665   -0.6843 C.ar      1 <0>        -0.1327
     24 C19        -2.6976    3.3664   -0.6926 C.ar      1 <0>        -0.0656
     25 C20        -3.7603    2.7809    0.0009 C.ar      1 <0>        -0.1542
     26 C21        -3.5623    1.5852    0.6966 C.ar      1 <0>        -0.0397
     27 C22        -2.3219    0.9880    0.6969 C.ar      1 <0>        -0.1517
     28 C23        -5.0889    3.4237   -0.0020 C.2       1 <0>         0.5644
     29 O5         -6.0127    2.9129    0.6015 O.2       1 <0>        -0.5501
     30 N2         -5.2782    4.5768   -0.6735 N.am      1 <0>        -0.8741
     31 Br1        11.7808   -0.4939    0.6191 Br        1 <0>        -0.0476
     32 H1          7.0541   -3.7434    0.6096 H         1 <0>         0.1320
     33 H2          9.2729   -4.7987    0.7718 H         1 <0>         0.1338
     34 H3         11.3021   -3.4046    0.7764 H         1 <0>         0.1361
     35 H4          6.8635   -1.2934    0.4597 H         1 <0>         0.1517
     36 H5          9.3077    0.9875    1.3195 H         1 <0>         0.0875
     37 H6          9.3875    0.8782   -0.4717 H         1 <0>         0.0875
     38 H7          9.2541    2.8188    0.3037 H         1 <0>         0.1398
     39 H8          8.7439    5.2157    0.1339 H         1 <0>         0.1351
     40 H9          6.4115    5.9826   -0.0166 H         1 <0>         0.1360
     41 H10         4.5707    4.3570   -0.0087 H         1 <0>         0.1481
     42 H11         2.6011    0.3890   -0.7422 H         1 <0>         0.1087
     43 H12         2.5217    0.4991    1.0490 H         1 <0>         0.1090
     44 H13         0.0689   -0.1313    0.0069 H         1 <0>         0.4420
     45 H14        -0.6359    3.2204   -1.2169 H         1 <0>         0.1456
     46 H15        -2.8474    4.2902   -1.2316 H         1 <0>         0.1301
     47 H16        -4.3816    1.1300    1.2333 H         1 <0>         0.1410
     48 H17        -2.1682    0.0640    1.2344 H         1 <0>         0.1352
     49 H18        -6.2684    5.0558   -0.6756 H         1 <0>         0.4267
     50 H19        -4.4425    5.0389   -1.2194 H         1 <0>         0.4182
@<TRIPOS>BOND
     1    1    6 ar
     2    1    2 ar
     3    1   32 1
     4    2    3 ar
     5    2   33 1
     6    3    4 ar
     7    3   34 1
     8    4    5 ar
     9    4   31 1
    10    5    6 ar
    11    5    7 1
    12    6   35 1
    13    7    8 1
    14    7   36 1
    15    7   37 1
    16    8    9 1
    17    9   14 ar
    18    9   10 ar
    19   10   11 ar
    20   10   38 1
    21   11   12 ar
    22   11   39 1
    23   12   13 ar
    24   12   40 1
    25   13   14 ar
    26   13   41 1
    27   14   15 1
    28   15   16 2
    29   15   17 1
    30   17   18 1
    31   18   19 1
    32   18   42 1
    33   18   43 1
    34   19   20 2
    35   19   21 am
    36   21   22 1
    37   21   44 1
    38   22   27 ar
    39   22   23 ar
    40   23   24 ar
    41   23   45 1
    42   24   25 ar
    43   24   46 1
    44   25   26 ar
    45   25   28 1
    46   26   27 ar
    47   26   47 1
    48   27   48 1
    49   28   29 2
    50   28   30 am
    51   30   49 1
    52   30   50 1
@<TRIPOS>MOLECULE
ZINC40315493
   68    71     0     0     0
SMALL
USER_CHARGES

@<TRIPOS>ATOM
      1 C1         -0.0184    1.5028    0.0103 C.3       1 <0>        -0.1120
      2 C2          0.0021   -0.0041    0.0020 C.ar      1 <0>        -0.1167
      3 C3          0.0057   -0.6877   -1.2000 C.ar      1 <0>        -0.0870
      4 C4          0.0240   -2.0688   -1.2103 C.ar      1 <0>        -0.2014
      5 C5          0.0391   -2.7702   -0.0132 C.ar      1 <0>         0.1186
      6 C6          0.0359   -2.0821    1.1912 C.ar      1 <0>        -0.1085
      7 C7          0.0229   -0.7005    1.1961 C.ar      1 <0>        -0.0842
      8 C8          0.0523   -2.8407    2.4932 C.3       1 <0>        -0.1065
      9 O1          0.0567   -4.1291   -0.0207 O.3       1 <0>        -0.2996
     10 C9          0.0584   -4.7708   -1.2975 C.3       1 <0>         0.0312
     11 C10         0.0790   -6.2886   -1.1053 C.3       1 <0>         0.1028
     12 H1         -0.7558   -6.5858   -0.4707 H         1 <0>         0.1194
     13 C11        -0.0447   -6.9766   -2.4663 C.3       1 <0>         0.0894
     14 N1         -0.1451   -8.4255   -2.2737 N.pl3     1 <0>        -0.6863
     15 C12        -0.2662   -9.2612   -3.3676 C.2       1 <0>         0.1239
     16 C13        -0.3778  -10.6441   -3.3765 C.2       1 <0>        -0.2961
     17 C14        -0.4947  -11.2918   -4.6726 C.2       1 <0>        -0.0340
     18 C15        -0.4789  -10.4400   -5.7192 C.2       1 <0>        -0.2127
     19 S1         -0.3194   -8.8358   -4.9912 S.3       1 <0>         0.1636
     20 C16        -0.5817  -10.7956   -7.1703 C.3       1 <0>        -0.0255
     21 C17        -1.0868  -12.2420   -7.2779 C.3       1 <0>        -0.0861
     22 H2         -2.1396  -12.2827   -6.9988 H         1 <0>         0.0759
     23 C18        -0.2701  -13.1238   -6.3289 C.3       1 <0>        -0.1134
     24 C19        -0.6245  -12.7940   -4.8772 C.3       1 <0>        -0.0610
     25 C20        -0.9181  -12.7382   -8.7153 C.3       1 <0>        -0.1477
     26 C21        -0.3773  -11.4182   -2.1333 C.2       1 <0>         0.5931
     27 O2         -1.4267  -11.6559   -1.5640 O.2       1 <0>        -0.5297
     28 N2          0.7849  -11.8674   -1.6196 N.am      1 <0>        -0.7128
     29 C22         0.7854  -12.6417   -0.3760 C.3       1 <0>         0.1399
     30 H3         -0.1127  -13.2574   -0.3255 H         1 <0>         0.1139
     31 C23         0.8299  -11.6882    0.8295 C.3       1 <0>        -0.1406
     32 C24         1.1521  -12.4820    2.1186 C.3       1 <0>        -0.5733
     33 S2          2.1325  -13.9025    1.4837 S.o2      1 <0>         2.3776
     34 O3          1.4285  -15.1072    1.7527 O.2       1 <0>        -0.9283
     35 O4          3.4783  -13.7670    1.9194 O.2       1 <0>        -0.9313
     36 C25         2.0478  -13.5488   -0.3224 C.3       1 <0>        -0.5947
     37 O5          1.3083   -6.6738   -0.4869 O.3       1 <0>        -0.5438
     38 H4          1.0042    1.8801    0.0026 H         1 <0>         0.0692
     39 H5         -0.5455    1.8639   -0.8728 H         1 <0>         0.0655
     40 H6         -0.5286    1.8543    0.9071 H         1 <0>         0.0661
     41 H7         -0.0061   -0.1413   -2.1315 H         1 <0>         0.1247
     42 H8          0.0261   -2.6023   -2.1493 H         1 <0>         0.1260
     43 H9          0.0245   -0.1642    2.1335 H         1 <0>         0.1296
     44 H10         1.0838   -3.0100    2.8021 H         1 <0>         0.0691
     45 H11        -0.4655   -2.2615    3.2577 H         1 <0>         0.0654
     46 H12        -0.4495   -3.7993    2.3615 H         1 <0>         0.0700
     47 H13        -0.8381   -4.4865   -1.8483 H         1 <0>         0.0757
     48 H14         0.9417   -4.4635   -1.8574 H         1 <0>         0.0706
     49 H15        -0.9377   -6.6152   -2.9763 H         1 <0>         0.0824
     50 H16         0.8347   -6.7503   -3.0692 H         1 <0>         0.0777
     51 H17        -0.1266   -8.7981   -1.3783 H         1 <0>         0.4135
     52 H18        -1.2835  -10.1237   -7.6644 H         1 <0>         0.0774
     53 H19         0.3988  -10.7131   -7.6392 H         1 <0>         0.0794
     54 H20        -0.4932  -14.1722   -6.5269 H         1 <0>         0.0703
     55 H21         0.7926  -12.9440   -6.4921 H         1 <0>         0.0668
     56 H22         0.0591  -13.3147   -4.2066 H         1 <0>         0.0725
     57 H23        -1.6491  -13.1038   -4.6715 H         1 <0>         0.0799
     58 H24         0.1358  -12.7008   -8.9912 H         1 <0>         0.0568
     59 H25        -1.2770  -13.7647   -8.7898 H         1 <0>         0.0584
     60 H26        -1.4928  -12.1026   -9.3889 H         1 <0>         0.0576
     61 H27         1.6211  -11.6779   -2.0733 H         1 <0>         0.4067
     62 H28         1.6003  -10.9345    0.6666 H         1 <0>         0.0906
     63 H29        -0.1374  -11.1977    0.9389 H         1 <0>         0.1009
     64 H30         1.7457  -11.8789    2.8056 H         1 <0>         0.1455
     65 H31         0.2366  -12.8279    2.5984 H         1 <0>         0.1430
     66 H32         1.9006  -14.4636   -0.8965 H         1 <0>         0.1486
     67 H33         2.9338  -13.0116   -0.6610 H         1 <0>         0.1453
     68 H34         2.0956   -6.4401   -0.9974 H         1 <0>         0.3788
@<TRIPOS>BOND
     1    1    2 1
     2    1   38 1
     3    1   39 1
     4    1   40 1
     5    2    7 ar
     6    2    3 ar
     7    3    4 ar
     8    3   41 1
     9    4    5 ar
    10    4   42 1
    11    5    6 ar
    12    5    9 1
    13    6    7 ar
    14    6    8 1
    15    7   43 1
    16    8   44 1
    17    8   45 1
    18    8   46 1
    19    9   10 1
    20   10   11 1
    21   10   47 1
    22   10   48 1
    23   11   12 1
    24   11   13 1
    25   11   37 1
    26   13   14 1
    27   13   49 1
    28   13   50 1
    29   14   15 1
    30   14   51 1
    31   15   19 1
    32   15   16 2
    33   16   17 1
    34   16   26 1
    35   17   24 1
    36   17   18 2
    37   18   19 1
    38   18   20 1
    39   20   21 1
    40   20   52 1
    41   20   53 1
    42   21   22 1
    43   21   23 1
    44   21   25 1
    45   23   24 1
    46   23   54 1
    47   23   55 1
    48   24   56 1
    49   24   57 1
    50   25   58 1
    51   25   59 1
    52   25   60 1
    53   26   27 2
    54   26   28 am
    55   28   29 1
    56   28   61 1
    57   29   30 1
    58   29   36 1
    59   29   31 1
    60   31   32 1
    61   31   62 1
    62   31   63 1
    63   32   33 1
    64   32   64 1
    65   32   65 1
    66   33   34 2
    67   33   35 2
    68   33   36 1
    69   36   66 1
    70   36   67 1
    71   37   68 1
@<TRIPOS>MOLECULE
ZINC58990880
   53    55     0     0     0
SMALL
USER_CHARGES

@<TRIPOS>ATOM
      1 C1          0.5453    1.3210    0.3771 C.3       1 <0>        -0.1468
      2 C2          0.1851   -0.1583    0.2260 C.3       1 <0>        -0.0634
      3 C3         -1.3140   -0.3111    0.2085 C.2       1 <0>         0.1399
      4 N1         -1.9580   -0.2630   -0.9169 N.2       1 <0>        -0.2232
      5 N2         -3.3246   -0.5688   -0.9556 N.am      1 <0>        -0.5897
      6 C4         -4.0199   -0.4045   -2.0985 C.2       1 <0>         0.5273
      7 O1         -3.4623    0.0083   -3.0936 O.2       1 <0>        -0.5006
      8 C5         -5.4899   -0.7335   -2.1401 C.3       1 <0>        -0.1291
      9 C6         -6.0343   -0.4599   -3.5436 C.3       1 <0>        -0.0896
     10 C7         -7.5268   -0.7939   -3.5858 C.3       1 <0>        -0.1140
     11 S1         -8.1721   -0.4695   -5.2498 S.3       1 <0>         0.0353
     12 C8         -9.8776   -0.8972   -5.1364 C.2       1 <0>         0.1952
     13 N3        -10.5009   -1.3402   -4.0674 N.2       1 <0>        -0.2884
     14 N4        -11.7396   -1.5532   -4.3353 N.2       1 <0>        -0.2268
     15 C9        -11.9834   -1.2595   -5.5913 C.2       1 <0>         0.1760
     16 N5        -10.7996   -0.8247   -6.1414 N.pl3     1 <0>        -0.2993
     17 N6        -10.5895   -0.4100   -7.4259 N.3       1 <0>        -0.5807
     18 C10       -13.2854   -1.3695   -6.2826 C.ar      1 <0>         0.0018
     19 C11       -13.3684   -2.0006   -7.5249 C.ar      1 <0>        -0.1016
     20 C12       -14.5865   -2.1004   -8.1645 C.ar      1 <0>        -0.0990
     21 C13       -15.7251   -1.5766   -7.5777 C.ar      1 <0>        -0.0944
     22 C14       -15.6507   -0.9499   -6.3469 C.ar      1 <0>        -0.0872
     23 C15       -14.4387   -0.8477   -5.6932 C.ar      1 <0>        -0.0554
     24 Br1       -14.3400    0.0025   -4.0070 Br        1 <0>        -0.0178
     25 C16        -2.0492   -0.5153    1.4706 C.ar      1 <0>        -0.0994
     26 C17        -1.4970   -1.3009    2.4851 C.ar      1 <0>        -0.0885
     27 C18        -2.1902   -1.4876    3.6629 C.ar      1 <0>        -0.1148
     28 C19        -3.4299   -0.8993    3.8406 C.ar      1 <0>        -0.1049
     29 C20        -3.9830   -0.1198    2.8400 C.ar      1 <0>        -0.1133
     30 C21        -3.2984    0.0806    1.6594 C.ar      1 <0>        -0.1198
     31 H1          1.6296    1.4315    0.3897 H         1 <0>         0.0669
     32 H2          0.1325    1.8829   -0.4607 H         1 <0>         0.0608
     33 H3          0.1303    1.7025    1.3101 H         1 <0>         0.0571
     34 H4          0.6001   -0.5398   -0.7070 H         1 <0>         0.0887
     35 H5          0.5979   -0.7202    1.0638 H         1 <0>         0.0887
     36 H6         -3.7705   -0.8989   -0.1599 H         1 <0>         0.3905
     37 H7         -5.6340   -1.7853   -1.8932 H         1 <0>         0.1036
     38 H8         -6.0214   -0.1145   -1.4172 H         1 <0>         0.1028
     39 H9         -5.8902    0.5920   -3.7904 H         1 <0>         0.0864
     40 H10        -5.5028   -1.0788   -4.2664 H         1 <0>         0.0864
     41 H11        -7.6708   -1.8457   -3.3389 H         1 <0>         0.0990
     42 H12        -8.0582   -0.1749   -2.8629 H         1 <0>         0.0995
     43 H13       -10.4111   -1.1947   -8.0346 H         1 <0>         0.3672
     44 H14       -11.3678    0.1378   -7.7609 H         1 <0>         0.3780
     45 H15       -12.4808   -2.4095   -7.9845 H         1 <0>         0.1276
     46 H16       -14.6517   -2.5881   -9.1259 H         1 <0>         0.1395
     47 H17       -16.6760   -1.6573   -8.0832 H         1 <0>         0.1409
     48 H18       -16.5430   -0.5430   -5.8945 H         1 <0>         0.1437
     49 H19        -0.5298   -1.7613    2.3475 H         1 <0>         0.1320
     50 H20        -1.7645   -2.0947    4.4481 H         1 <0>         0.1300
     51 H21        -3.9686   -1.0494    4.7645 H         1 <0>         0.1281
     52 H22        -4.9512    0.3361    2.9853 H         1 <0>         0.1296
     53 H23        -3.7290    0.6932    0.8811 H         1 <0>         0.1252
@<TRIPOS>BOND
     1    1    2 1
     2    1   31 1
     3    1   32 1
     4    1   33 1
     5    2    3 1
     6    2   34 1
     7    2   35 1
     8    3    4 2
     9    3   25 1
    10    4    5 1
    11    5    6 am
    12    5   36 1
    13    6    7 2
    14    6    8 1
    15    8    9 1
    16    8   37 1
    17    8   38 1
    18    9   10 1
    19    9   39 1
    20    9   40 1
    21   10   11 1
    22   10   41 1
    23   10   42 1
    24   11   12 1
    25   12   16 1
    26   12   13 2
    27   13   14 1
    28   14   15 2
    29   15   16 1
    30   15   18 1
    31   16   17 1
    32   17   43 1
    33   17   44 1
    34   18   23 ar
    35   18   19 ar
    36   19   20 ar
    37   19   45 1
    38   20   21 ar
    39   20   46 1
    40   21   22 ar
    41   21   47 1
    42   22   23 ar
    43   22   48 1
    44   23   24 1
    45   25   30 ar
    46   25   26 ar
    47   26   27 ar
    48   26   49 1
    49   27   28 ar
    50   27   50 1
    51   28   29 ar
    52   28   51 1
    53   29   30 ar
    54   29   52 1
    55   30   53 1
@<TRIPOS>MOLECULE
ZINC00720323
   44    47     0     0     0
SMALL
USER_CHARGES
dimethyl diamino-(4-chlorophenyl)-BLAHdicarboxylate
@<TRIPOS>ATOM
      1 C1         -4.5268   -0.5310    1.1349 C.3       1 <0>         0.0294
      2 O1         -3.1144   -0.7395    1.1955 O.3       1 <0>        -0.3480
      3 C2         -2.4577   -0.8316    0.0202 C.2       1 <0>         0.5573
      4 O2         -3.0694   -0.7371   -1.0277 O.2       1 <0>        -0.4916
      5 C3         -1.0564   -1.0381    0.0062 C.2       1 <0>        -0.3264
      6 C4          0.0021   -0.0041    0.0020 C.ar      1 <0>        -0.0318
      7 C5         -0.0168    1.3862    0.0097 C.ar      1 <0>        -0.0580
      8 C6          1.1731    2.0967    0.0021 C.ar      1 <0>         0.0596
      9 C7          2.3922    1.4026   -0.0112 C.ar      1 <0>        -0.0198
     10 C8          2.4179    0.0033   -0.0200 C.ar      1 <0>         0.0012
     11 C9          1.2144   -0.7075   -0.0134 C.ar      1 <0>         0.0724
     12 O3          0.9354   -2.0292   -0.0183 O.3       1 <0>        -0.1905
     13 C10        -0.3861   -2.2525   -0.0071 C.2       1 <0>         0.4087
     14 N1         -0.9824   -3.4884   -0.0091 N.pl3     1 <0>        -0.8070
     15 C11         3.7110   -0.7192   -0.0358 C.ar      1 <0>        -0.0481
     16 C12         4.5829   -0.6173    1.0479 C.ar      1 <0>        -0.0833
     17 C13         5.7835   -1.2969    1.0304 C.ar      1 <0>        -0.1118
     18 C14         6.1284   -2.0699   -0.0653 C.ar      1 <0>        -0.0278
     19 C15         5.2691   -2.1700   -1.1463 C.ar      1 <0>        -0.1084
     20 C16         4.0635   -1.4992   -1.1369 C.ar      1 <0>        -0.0794
     21 Cl1         7.6435   -2.9170   -0.0836 Cl        1 <0>        -0.0679
     22 C17         3.4423    2.4416   -0.0145 C.2       1 <0>        -0.3241
     23 C18         2.7640    3.6528   -0.0009 C.2       1 <0>         0.4096
     24 O4          1.4440    3.4215    0.0098 O.3       1 <0>        -0.1947
     25 N2          3.3525    4.8919    0.0009 N.pl3     1 <0>        -0.8064
     26 C19         4.8455    2.2438   -0.0292 C.2       1 <0>         0.5577
     27 O5          5.4379    2.1658   -1.0894 O.2       1 <0>        -0.4886
     28 O6          5.5248    2.1420    1.1324 O.3       1 <0>        -0.3465
     29 C20         6.9370    1.9433    1.0428 C.3       1 <0>         0.0286
     30 H1         -4.9939   -1.3596    0.6025 H         1 <0>         0.0608
     31 H2         -4.9297   -0.4757    2.1462 H         1 <0>         0.1031
     32 H3         -4.7343    0.4013    0.6096 H         1 <0>         0.0621
     33 H4         -0.9596    1.9130    0.0170 H         1 <0>         0.1424
     34 H5         -1.9497   -3.5602   -0.0009 H         1 <0>         0.4317
     35 H6         -0.4366   -4.2902   -0.0188 H         1 <0>         0.4176
     36 H7          4.3169   -0.0110    1.9012 H         1 <0>         0.1386
     37 H8          6.4576   -1.2219    1.8708 H         1 <0>         0.1364
     38 H9          5.5432   -2.7740   -1.9986 H         1 <0>         0.1367
     39 H10         3.3941   -1.5777   -1.9808 H         1 <0>         0.1329
     40 H11         4.3193    4.9696   -0.0078 H         1 <0>         0.4317
     41 H12         2.8018    5.6903    0.0108 H         1 <0>         0.4177
     42 H13         7.1403    1.0187    0.5027 H         1 <0>         0.0620
     43 H14         7.3888    2.7812    0.5118 H         1 <0>         0.0595
     44 H15         7.3592    1.8786    2.0457 H         1 <0>         0.1023
@<TRIPOS>BOND
     1    1    2 1
     2    1   30 1
     3    1   31 1
     4    1   32 1
     5    2    3 1
     6    3    4 2
     7    3    5 1
     8    5   13 2
     9    5    6 1
    10    6   11 ar
    11    6    7 ar
    12    7    8 ar
    13    7   33 1
    14    8   24 1
    15    8    9 ar
    16    9   10 ar
    17    9   22 1
    18   10   11 ar
    19   10   15 1
    20   11   12 1
    21   12   13 1
    22   13   14 1
    23   14   34 1
    24   14   35 1
    25   15   20 ar
    26   15   16 ar
    27   16   17 ar
    28   16   36 1
    29   17   18 ar
    30   17   37 1
    31   18   19 ar
    32   18   21 1
    33   19   20 ar
    34   19   38 1
    35   20   39 1
    36   22   23 2
    37   22   26 1
    38   23   24 1
    39   23   25 1
    40   25   40 1
    41   25   41 1
    42   26   27 2
    43   26   28 1
    44   28   29 1
    45   29   42 1
    46   29   43 1
    47   29   44 1
@<TRIPOS>MOLECULE
ZINC16958326
   46    50     0     0     0
SMALL
USER_CHARGES
4-[2-[N'-[(5Z)-5-(1,3-benzodioxol-5-ylmethylene)-4H-thiazol-2-yl]hydrazino]thiazol-4-yl]benzene-1,2-diol
@<TRIPOS>ATOM
      1 C1          5.9808    0.7440    0.7562 C.ar      1 <0>        -0.0857
      2 C2          6.9551   -0.2286    0.8493 C.ar      1 <0>        -0.0979
      3 C3          6.7649   -1.4664    0.2542 C.ar      1 <0>         0.0399
      4 C4          5.5841   -1.7357   -0.4370 C.ar      1 <0>         0.0409
      5 C5          4.6014   -0.7676   -0.5293 C.ar      1 <0>        -0.0966
      6 C6          4.7936    0.4791    0.0706 C.ar      1 <0>        -0.0547
      7 C7          3.7475    1.5154   -0.0252 C.2       1 <0>        -0.0453
      8 C8          2.4971    1.1745   -0.3526 C.2       1 <0>        -0.1431
      9 C9          1.3028    2.0618   -0.6572 C.3       1 <0>         0.0889
     10 N1          0.1042    1.3187   -0.9732 N.2       1 <0>        -0.5999
     11 C10         0.1146    0.0218   -0.9787 C.2       1 <0>         0.3917
     12 S1          1.7776   -0.4467   -0.5497 S.3       1 <0>        -0.0284
     13 N2         -0.9395   -0.8169   -1.2583 N.pl3     1 <0>        -0.4744
     14 N3         -2.1937   -0.2822   -1.5806 N.pl3     1 <0>        -0.4588
     15 C11        -3.2553   -1.1268   -1.8621 C.2       1 <0>         0.3800
     16 N4         -4.5013   -0.8250   -2.1783 N.2       1 <0>        -0.5584
     17 C12        -5.3986   -1.7770   -2.4238 C.2       1 <0>         0.1445
     18 C13        -5.0244   -3.0875   -2.3348 C.2       1 <0>        -0.2231
     19 S2         -3.3027   -2.9132   -1.8858 S.3       1 <0>        -0.0049
     20 C14        -6.7921   -1.4185   -2.7841 C.ar      1 <0>        -0.0185
     21 C15        -7.7269   -2.4203   -3.0396 C.ar      1 <0>        -0.0933
     22 C16        -9.0249   -2.0859   -3.3691 C.ar      1 <0>        -0.1304
     23 C17        -9.3991   -0.7539   -3.4580 C.ar      1 <0>         0.0877
     24 C18        -8.4682    0.2511   -3.2095 C.ar      1 <0>         0.0777
     25 C19        -7.1674   -0.0791   -2.8732 C.ar      1 <0>        -0.0942
     26 O1         -8.8375    1.5570   -3.2968 O.3       1 <0>        -0.4861
     27 O2        -10.6775   -0.4286   -3.7889 O.3       1 <0>        -0.4878
     28 O3          5.6447   -3.0099   -0.9235 O.3       1 <0>        -0.3058
     29 C20         7.0367   -3.3744   -0.8748 C.3       1 <0>         0.2121
     30 O4          7.5632   -2.5733    0.1994 O.3       1 <0>        -0.3062
     31 H1          6.1347    1.7086    1.2170 H         1 <0>         0.1461
     32 H2          7.8709   -0.0235    1.3838 H         1 <0>         0.1416
     33 H3          3.6866   -0.9749   -1.0646 H         1 <0>         0.1451
     34 H4          3.9921    2.5492    0.1692 H         1 <0>         0.1582
     35 H5          1.5501    2.7032   -1.5030 H         1 <0>         0.1125
     36 H6          1.1052    2.6923    0.2097 H         1 <0>         0.1110
     37 H7         -0.8144   -1.7784   -1.2322 H         1 <0>         0.4444
     38 H8         -2.3188    0.6794   -1.6067 H         1 <0>         0.4523
     39 H9         -5.6080   -3.9825   -2.4918 H         1 <0>         0.2020
     40 H10        -7.4366   -3.4586   -2.9753 H         1 <0>         0.1347
     41 H11        -9.7491   -2.8633   -3.5628 H         1 <0>         0.1387
     42 H12        -6.4443    0.6994   -2.6798 H         1 <0>         0.1442
     43 H13        -8.7219    1.9405   -4.1770 H         1 <0>         0.3880
     44 H14       -10.8246   -0.3293   -4.7395 H         1 <0>         0.3889
     45 H15         7.5304   -3.1268   -1.8146 H         1 <0>         0.0875
     46 H16         7.1472   -4.4354   -0.6510 H         1 <0>         0.1351
@<TRIPOS>BOND
     1    1    6 ar
     2    1    2 ar
     3    1   31 1
     4    2    3 ar
     5    2   32 1
     6    3   30 1
     7    3    4 ar
     8    4    5 ar
     9    4   28 1
    10    5    6 ar
    11    5   33 1
    12    6    7 1
    13    7    8 2
    14    7   34 1
    15    8   12 1
    16    8    9 1
    17    9   10 1
    18    9   35 1
    19    9   36 1
    20   10   11 2
    21   11   12 1
    22   11   13 1
    23   13   14 1
    24   13   37 1
    25   14   15 1
    26   14   38 1
    27   15   19 1
    28   15   16 2
    29   16   17 1
    30   17   18 2
    31   17   20 1
    32   18   19 1
    33   18   39 1
    34   20   25 ar
    35   20   21 ar
    36   21   22 ar
    37   21   40 1
    38   22   23 ar
    39   22   41 1
    40   23   24 ar
    41   23   27 1
    42   24   25 ar
    43   24   26 1
    44   25   42 1
    45   26   43 1
    46   27   44 1
    47   28   29 1
    48   29   30 1
    49   29   45 1
    50   29   46 1
@<TRIPOS>MOLECULE
ZINC23590424
   45    46     0     0     0
SMALL
USER_CHARGES
[(1S)-2-[[3-chloro-4-(difluoromethoxy)phenyl]amino]-1-methyl-2-oxo-ethyl] 4-ureidobenzoate
@<TRIPOS>ATOM
      1 C1         -7.0922    5.7418    1.2612 C.3       1 <0>        -0.1689
      2 C2         -6.4616    5.4650   -0.1050 C.3       1 <0>         0.0739
      3 H1         -6.9966    4.6644   -0.6368 H         1 <0>         0.1199
      4 C3         -6.4715    6.7275   -0.9279 C.2       1 <0>         0.5196
      5 O1         -5.4275    7.2020   -1.3231 O.2       1 <0>        -0.4940
      6 N1         -7.6403    7.3293   -1.2247 N.am      1 <0>        -0.6790
      7 C4         -7.6592    8.4411   -2.0770 C.ar      1 <0>         0.1439
      8 C5         -8.5946    9.4489   -1.8833 C.ar      1 <0>        -0.1007
      9 C6         -8.6104   10.5468   -2.7208 C.ar      1 <0>        -0.1578
     10 C7         -7.6983   10.6389   -3.7617 C.ar      1 <0>         0.1007
     11 C8         -6.7661    9.6296   -3.9595 C.ar      1 <0>        -0.0314
     12 C9         -6.7465    8.5328   -3.1190 C.ar      1 <0>        -0.0841
     13 Cl1        -5.6254    9.7449   -5.2631 Cl        1 <0>        -0.0423
     14 O2         -7.7175   11.7182   -4.5888 O.3       1 <0>        -0.3082
     15 C10        -8.7035   12.7188   -4.3269 C.3       1 <0>         0.4087
     16 F1         -9.9792   12.1518   -4.4190 F         1 <0>        -0.1980
     17 F2         -8.5142   13.2346   -3.0403 F         1 <0>        -0.1976
     18 O3         -5.0927    5.0158    0.0758 O.3       1 <0>        -0.3272
     19 C11        -4.8964    3.6891    0.2068 C.2       1 <0>         0.5170
     20 O4         -5.8432    2.9284    0.1709 O.2       1 <0>        -0.5074
     21 C12        -3.5327    3.1606    0.3937 C.ar      1 <0>        -0.1527
     22 C13        -3.3271    1.7843    0.5298 C.ar      1 <0>        -0.0294
     23 C14        -2.0527    1.2944    0.7037 C.ar      1 <0>        -0.1645
     24 C15        -0.9695    2.1670    0.7436 C.ar      1 <0>         0.2119
     25 C16        -1.1709    3.5378    0.6142 C.ar      1 <0>        -0.1391
     26 C17        -2.4420    4.0343    0.4348 C.ar      1 <0>        -0.0352
     27 N2          0.3199    1.6672    0.9194 N.am      1 <0>        -0.7005
     28 C18         1.2179    2.3603    1.6471 C.2       1 <0>         0.7073
     29 O5          0.9290    3.4572    2.0848 O.2       1 <0>        -0.5808
     30 N3          2.4362    1.8375    1.8897 N.am      1 <0>        -0.8845
     31 H2         -7.0850    4.8203    1.8618 H         1 <0>         0.0813
     32 H3         -8.1292    6.0821    1.1242 H         1 <0>         0.0836
     33 H4         -6.5158    6.5220    1.7798 H         1 <0>         0.0783
     34 H5         -8.5795    6.9476   -0.7978 H         1 <0>         0.4405
     35 H6         -9.3077    9.3757   -1.0755 H         1 <0>         0.1417
     36 H7         -9.3356   11.3322   -2.5676 H         1 <0>         0.1474
     37 H8         -6.0215    7.7472   -3.2729 H         1 <0>         0.1547
     38 H9         -8.6251   13.5398   -5.0548 H         1 <0>         0.1890
     39 H10        -4.1673    1.1064    0.4982 H         1 <0>         0.1420
     40 H11        -1.8932    0.2314    0.8089 H         1 <0>         0.1364
     41 H12        -0.3283    4.2124    0.6501 H         1 <0>         0.1486
     42 H13        -2.5971    5.0980    0.3300 H         1 <0>         0.1432
     43 H14         0.6044    0.7071    0.4642 H         1 <0>         0.4327
     44 H15         3.1691    2.4032    2.4836 H         1 <0>         0.4437
     45 H16         2.6976    0.8451    1.4938 H         1 <0>         0.4171
@<TRIPOS>BOND
     1    1    2 1
     2    1   31 1
     3    1   32 1
     4    1   33 1
     5    2    3 1
     6    2    4 1
     7    2   18 1
     8    4    5 2
     9    4    6 am
    10    6    7 1
    11    6   34 1
    12    7   12 ar
    13    7    8 ar
    14    8    9 ar
    15    8   35 1
    16    9   10 ar
    17    9   36 1
    18   10   11 ar
    19   10   14 1
    20   11   12 ar
    21   11   13 1
    22   12   37 1
    23   14   15 1
    24   15   16 1
    25   15   17 1
    26   15   38 1
    27   18   19 1
    28   19   20 2
    29   19   21 1
    30   21   26 ar
    31   21   22 ar
    32   22   23 ar
    33   22   39 1
    34   23   24 ar
    35   23   40 1
    36   24   25 ar
    37   24   27 1
    38   25   26 ar
    39   25   41 1
    40   26   42 1
    41   27   28 am
    42   27   43 1
    43   28   29 2
    44   28   30 am
    45   30   44 1
    46   30   45 1
@<TRIPOS>MOLECULE
ZINC36592240
   69    69     0     0     0
SMALL
USER_CHARGES

@<TRIPOS>ATOM
      1 C1          0.3711   -2.1121    0.3401 C.3       1 <0>        -0.1727
      2 C2          0.0402   -0.9182    1.2379 C.3       1 <0>        -0.0633
      3 C3         -0.0021    0.3577    0.3947 C.3       1 <0>        -0.1641
      4 C4         -1.3223   -1.1387    1.8981 C.3       1 <0>        -0.1433
      5 C5          1.1142   -0.7799    2.3188 C.3       1 <0>        -0.1174
      6 C6          2.3459   -0.0902    1.7287 C.3       1 <0>         0.1819
      7 C7          1.9997    1.3579    1.3765 C.3       1 <0>        -0.2578
      8 C8          3.4810   -0.1082    2.7544 C.3       1 <0>        -0.1641
      9 N1          2.7697   -0.7991    0.5187 N.am      1 <0>        -0.7224
     10 C9          3.8034   -0.3317   -0.2090 C.2       1 <0>         0.4684
     11 O1          4.3826    0.6758    0.1378 O.2       1 <0>        -0.4532
     12 C10         4.2393   -1.0609   -1.4536 C.3       1 <0>         0.1943
     13 H1          4.4740   -2.0959   -1.2050 H         1 <0>         0.1093
     14 C11         3.1275   -1.0283   -2.4704 C.ar      1 <0>        -0.1433
     15 C12         2.9759    0.0750   -3.2969 C.ar      1 <0>         0.1558
     16 C13         1.9528    0.1050   -4.2325 C.ar      1 <0>        -0.1765
     17 C14         1.0817   -0.9684   -4.3421 C.ar      1 <0>         0.1475
     18 C15         1.2339   -2.0720   -3.5163 C.ar      1 <0>        -0.1750
     19 C16         2.2596   -2.1039   -2.5836 C.ar      1 <0>         0.1511
     20 O2          2.4116   -3.1874   -1.7775 O.3       1 <0>        -0.4895
     21 O3          0.0785   -0.9386   -5.2584 O.3       1 <0>        -0.4936
     22 O4          3.8296    1.1268   -3.1895 O.3       1 <0>        -0.4734
     23 N2          5.4286   -0.4105   -2.0094 N.am      1 <0>        -0.5860
     24 C17         5.8850   -0.7670   -3.2264 C.2       1 <0>         0.5043
     25 O5          5.4359   -1.7489   -3.7787 O.2       1 <0>        -0.5019
     26 C18         6.9534    0.0544   -3.9008 C.3       1 <0>        -0.0107
     27 O6          7.2632   -0.5189   -5.1726 O.3       1 <0>        -0.3769
     28 C19         8.2708    0.1878   -5.8988 C.3       1 <0>         0.0312
     29 C20         6.1218    0.6274   -1.2423 C.3       1 <0>         0.1809
     30 C21         6.3845    0.1223    0.1778 C.3       1 <0>        -0.1726
     31 C22         7.4528    0.9592   -1.9200 C.3       1 <0>        -0.2042
     32 C23         5.2520    1.8848   -1.1836 C.3       1 <0>        -0.1145
     33 H2          1.1960   -1.8507   -0.3227 H         1 <0>         0.0550
     34 H3          0.6572   -2.9632    0.9581 H         1 <0>         0.0690
     35 H4         -0.5042   -2.3730   -0.2547 H         1 <0>         0.0728
     36 H5         -0.8243    0.2951   -0.3181 H         1 <0>         0.0515
     37 H6         -0.1507    1.2189    1.0461 H         1 <0>         0.0802
     38 H7          0.9387    0.4682   -0.1446 H         1 <0>         0.0812
     39 H8         -1.2921   -2.0477    2.4988 H         1 <0>         0.0575
     40 H9         -1.5580   -0.2882    2.5377 H         1 <0>         0.0586
     41 H10        -2.0874   -1.2373    1.1280 H         1 <0>         0.0582
     42 H11         0.7245   -0.1838    3.1440 H         1 <0>         0.0844
     43 H12         1.3916   -1.7687    2.6841 H         1 <0>         0.0711
     44 H13         1.9132    1.9437    2.2916 H         1 <0>         0.0553
     45 H14         2.7866    1.7774    0.7496 H         1 <0>         0.0780
     46 H15         1.0528    1.3843    0.8373 H         1 <0>         0.1349
     47 H16         3.7882   -1.1377    2.9382 H         1 <0>         0.0533
     48 H17         4.3275    0.4604    2.3695 H         1 <0>         0.0753
     49 H18         3.1359    0.3398    3.6862 H         1 <0>         0.0632
     50 H19         2.3064   -1.6049    0.2413 H         1 <0>         0.3951
     51 H20         1.8343    0.9645   -4.8757 H         1 <0>         0.1399
     52 H21         0.5552   -2.9078   -3.6014 H         1 <0>         0.1421
     53 H22         1.9200   -3.1316   -0.9467 H         1 <0>         0.3802
     54 H23         0.3224   -1.3025   -6.1205 H         1 <0>         0.3978
     55 H24         4.5708    1.0967   -3.8097 H         1 <0>         0.3792
     56 H25         6.5942    1.0741   -4.0397 H         1 <0>         0.0813
     57 H26         7.8490    0.0661   -3.2797 H         1 <0>         0.1382
     58 H27         7.9389    1.2103   -6.0791 H         1 <0>         0.0427
     59 H28         9.1938    0.2023   -5.3191 H         1 <0>         0.0439
     60 H29         8.4483   -0.3100   -6.8520 H         1 <0>         0.0906
     61 H30         7.1538   -0.6495    0.1524 H         1 <0>         0.0305
     62 H31         6.7210    0.9504    0.8016 H         1 <0>         0.0643
     63 H32         5.4658   -0.2940    0.5911 H         1 <0>         0.1080
     64 H33         7.2634    1.4968   -2.8491 H         1 <0>         0.0842
     65 H34         8.0533    1.5813   -1.2562 H         1 <0>         0.0767
     66 H35         7.9899    0.0360   -2.1374 H         1 <0>         0.0797
     67 H36         4.2000    1.5992   -1.1852 H         1 <0>         0.1019
     68 H37         5.4764    2.4396   -0.2727 H         1 <0>         0.0565
     69 H38         5.4597    2.5111   -2.0511 H         1 <0>         0.0196
@<TRIPOS>BOND
     1    1    2 1
     2    1   33 1
     3    1   34 1
     4    1   35 1
     5    2    3 1
     6    2    4 1
     7    2    5 1
     8    3   36 1
     9    3   37 1
    10    3   38 1
    11    4   39 1
    12    4   40 1
    13    4   41 1
    14    5    6 1
    15    5   42 1
    16    5   43 1
    17    6    7 1
    18    6    8 1
    19    6    9 1
    20    7   44 1
    21    7   45 1
    22    7   46 1
    23    8   47 1
    24    8   48 1
    25    8   49 1
    26    9   10 am
    27    9   50 1
    28   10   11 2
    29   10   12 1
    30   12   13 1
    31   12   14 1
    32   12   23 1
    33   14   19 ar
    34   14   15 ar
    35   15   16 ar
    36   15   22 1
    37   16   17 ar
    38   16   51 1
    39   17   18 ar
    40   17   21 1
    41   18   19 ar
    42   18   52 1
    43   19   20 1
    44   20   53 1
    45   21   54 1
    46   22   55 1
    47   23   24 am
    48   23   29 1
    49   24   25 2
    50   24   26 1
    51   26   27 1
    52   26   56 1
    53   26   57 1
    54   27   28 1
    55   28   58 1
    56   28   59 1
    57   28   60 1
    58   29   30 1
    59   29   31 1
    60   29   32 1
    61   30   61 1
    62   30   62 1
    63   30   63 1
    64   31   64 1
    65   31   65 1
    66   31   66 1
    67   32   67 1
    68   32   68 1
    69   32   69 1
@<TRIPOS>MOLECULE
ZINC54621225
   48    51     0     0     0
SMALL
USER_CHARGES

@<TRIPOS>ATOM
      1 C1         -0.0453    1.2332    0.5326 C.ar      1 <0>        -0.1665
      2 C2          1.0995    1.9594    0.3640 C.ar      1 <0>        -0.0588
      3 C3          2.3179    1.2631    0.2576 C.ar      1 <0>        -0.0900
      4 C4          3.5352    1.9418    0.0836 C.ar      1 <0>        -0.0934
      5 C5          4.6946    1.2344   -0.0151 C.ar      1 <0>        -0.0991
      6 C6          4.6929   -0.1563    0.0537 C.ar      1 <0>        -0.1060
      7 C7          3.5293   -0.8509    0.2224 C.ar      1 <0>         0.1562
      8 C8          2.3085   -0.1516    0.3290 C.ar      1 <0>         0.1062
      9 N1          1.1537   -0.8018    0.4951 N.ar      1 <0>        -0.4597
     10 C9          0.0165   -0.1569    0.5946 C.ar      1 <0>         0.1320
     11 O1          3.5470   -2.2077    0.2868 O.3       1 <0>        -0.4753
     12 C10         5.9949   -0.9065   -0.0603 C.3       1 <0>         0.2420
     13 H1          5.9496   -1.8079    0.5508 H         1 <0>         0.1058
     14 C11         6.2314   -1.2865   -1.4993 C.ar      1 <0>        -0.1120
     15 C12         6.7368   -0.3539   -2.3858 C.ar      1 <0>        -0.0683
     16 C13         6.9545   -0.7013   -3.7056 C.ar      1 <0>        -0.1557
     17 C14         6.6662   -1.9841   -4.1398 C.ar      1 <0>         0.1047
     18 C15         6.1601   -2.9173   -3.2510 C.ar      1 <0>        -0.1520
     19 C16         5.9481   -2.5691   -1.9305 C.ar      1 <0>        -0.0661
     20 F1          6.8782   -2.3248   -5.4298 F         1 <0>        -0.1380
     21 N2          7.0917   -0.0547    0.4064 N.pl3     1 <0>        -0.7306
     22 C17         8.2735   -0.6325    0.8759 C.ar      1 <0>         0.2740
     23 C18         8.4127   -2.0145    0.8957 C.ar      1 <0>        -0.2134
     24 C19         9.5827   -2.5825    1.3601 C.ar      1 <0>         0.0297
     25 C20        10.6148   -1.7772    1.8056 C.ar      1 <0>        -0.7297
     26 C21        10.4795   -0.4011    1.7874 C.ar      1 <0>         0.0290
     27 C22         9.3144    0.1737    1.3188 C.ar      1 <0>        -0.2124
     28 S1         12.1054   -2.5061    2.3985 S.o2      1 <0>         2.7031
     29 O2         12.7058   -1.5543    3.2662 O.2       1 <0>        -0.9692
     30 O3         11.7737   -3.8211    2.8227 O.2       1 <0>        -0.9688
     31 N3         13.1205   -2.6695    1.1003 N.pl3     1 <0>        -1.2521
     32 H2         -0.9966    1.7366    0.6222 H         1 <0>         0.1422
     33 H3          1.0702    3.0379    0.3134 H         1 <0>         0.1434
     34 H4          3.5517    3.0202    0.0278 H         1 <0>         0.1374
     35 H5          5.6288    1.7596   -0.1489 H         1 <0>         0.1283
     36 H6         -0.8964   -0.7183    0.7286 H         1 <0>         0.1636
     37 H7          6.9613    0.6467   -2.0470 H         1 <0>         0.1266
     38 H8          7.3491    0.0275   -4.3981 H         1 <0>         0.1358
     39 H9          5.9345   -3.9181   -3.5886 H         1 <0>         0.1383
     40 H10         5.5575   -3.2981   -1.2360 H         1 <0>         0.1380
     41 H11         6.9972    0.9105    0.3894 H         1 <0>         0.4042
     42 H12         7.6067   -2.6440    0.5485 H         1 <0>         0.1319
     43 H13         9.6916   -3.6569    1.3757 H         1 <0>         0.1417
     44 H14        11.2875    0.2250    2.1360 H         1 <0>         0.1421
     45 H15         9.2111    1.2486    1.3006 H         1 <0>         0.1317
     46 H16        12.8333   -2.3792    0.2205 H         1 <0>         0.4161
     47 H17        14.0024   -3.0555    1.2198 H         1 <0>         0.4196
     48 H18         3.6536   -2.5576    1.1819 H         1 <0>         0.3935
@<TRIPOS>BOND
     1    1   10 ar
     2    1    2 ar
     3    1   32 1
     4    2    3 ar
     5    2   33 1
     6    3    8 ar
     7    3    4 ar
     8    4    5 ar
     9    4   34 1
    10    5    6 ar
    11    5   35 1
    12    6    7 ar
    13    6   12 1
    14    7    8 ar
    15    7   11 1
    16    8    9 ar
    17    9   10 ar
    18   10   36 1
    19   11   48 1
    20   12   13 1
    21   12   14 1
    22   12   21 1
    23   14   19 ar
    24   14   15 ar
    25   15   16 ar
    26   15   37 1
    27   16   17 ar
    28   16   38 1
    29   17   18 ar
    30   17   20 1
    31   18   19 ar
    32   18   39 1
    33   19   40 1
    34   21   22 1
    35   21   41 1
    36   22   27 ar
    37   22   23 ar
    38   23   24 ar
    39   23   42 1
    40   24   25 ar
    41   24   43 1
    42   25   26 ar
    43   25   28 1
    44   26   27 ar
    45   26   44 1
    46   27   45 1
    47   28   29 2
    48   28   30 2
    49   28   31 1
    50   31   46 1
    51   31   47 1
@<TRIPOS>MOLECULE
ZINC05734024
   50    53     0     0     0
SMALL
USER_CHARGES
5-(anilinomethylene)-2-[4-(3,4-dihydroxyphenyl)thiazol-2-yl]aminoimino-3-ethyl-thiazolidin-4-one
@<TRIPOS>ATOM
      1 C1         -1.9829    2.4446    0.0379 C.3       1 <0>        -0.1872
      2 C2         -1.2898    1.8089   -1.1689 C.3       1 <0>         0.0769
      3 N1         -0.0116    1.2295   -0.7487 N.am      1 <0>        -0.5736
      4 C3          1.1011    1.9360   -0.8477 C.2       1 <0>         0.5729
      5 O1          1.0797    3.0737   -1.2827 O.2       1 <0>        -0.5101
      6 C4          2.3260    1.3371   -0.4348 C.2       1 <0>        -0.3565
      7 C5          3.5767    1.8556   -0.4409 C.2       1 <0>         0.2984
      8 N2          4.6345    1.1022    0.0055 N.pl3     1 <0>        -0.6349
      9 C6          5.9248    1.6372   -0.0008 C.ar      1 <0>         0.1507
     10 C7          6.1407    2.9293   -0.4637 C.ar      1 <0>        -0.1642
     11 C8          7.4167    3.4573   -0.4623 C.ar      1 <0>        -0.0802
     12 C9          8.4809    2.6971   -0.0128 C.ar      1 <0>        -0.1410
     13 C10         8.2706    1.4084    0.4429 C.ar      1 <0>        -0.0815
     14 C11         6.9963    0.8764    0.4505 C.ar      1 <0>        -0.1539
     15 S1          1.7761   -0.2785    0.0943 S.3       1 <0>         0.0942
     16 C12         0.0359   -0.0683   -0.2494 C.2       1 <0>         0.3158
     17 N3         -0.9397   -0.9144   -0.0770 N.2       1 <0>        -0.2282
     18 N4         -2.2684   -0.4794   -0.1675 N.pl3     1 <0>        -0.5254
     19 C13        -3.3005   -1.3951   -0.1066 C.2       1 <0>         0.3865
     20 N5         -4.6054   -1.1908   -0.1721 N.2       1 <0>        -0.5613
     21 C14        -5.4624   -2.1989   -0.0956 C.2       1 <0>         0.1341
     22 C15        -4.9896   -3.4718    0.0536 C.2       1 <0>        -0.2343
     23 S2         -3.2270   -3.1718    0.0739 S.3       1 <0>         0.0508
     24 C16        -6.9223   -1.9471   -0.1709 C.ar      1 <0>        -0.0147
     25 C17        -7.8190   -3.0115   -0.0951 C.ar      1 <0>        -0.0946
     26 C18        -9.1775   -2.7758   -0.1593 C.ar      1 <0>        -0.1295
     27 C19        -9.6529   -1.4823   -0.3109 C.ar      1 <0>         0.0853
     28 C20        -8.7617   -0.4158   -0.3929 C.ar      1 <0>         0.0776
     29 C21        -7.3993   -0.6464   -0.3232 C.ar      1 <0>        -0.0970
     30 O2         -9.2301    0.8522   -0.5419 O.3       1 <0>        -0.4865
     31 O3        -10.9921   -1.2548   -0.3790 O.3       1 <0>        -0.4879
     32 H1         -2.9340    2.8757   -0.2747 H         1 <0>         0.0897
     33 H2         -2.1613    1.6832    0.7972 H         1 <0>         0.0617
     34 H3         -1.3473    3.2279    0.4510 H         1 <0>         0.0802
     35 H4         -1.1115    2.5704   -1.9282 H         1 <0>         0.1161
     36 H5         -1.9255    1.0257   -1.5820 H         1 <0>         0.0905
     37 H6          3.7424    2.8617   -0.7969 H         1 <0>         0.1849
     38 H7          4.4857    0.1986    0.3253 H         1 <0>         0.4162
     39 H8          5.3108    3.5217   -0.8198 H         1 <0>         0.1304
     40 H9          7.5845    4.4635   -0.8172 H         1 <0>         0.1317
     41 H10         9.4785    3.1108   -0.0173 H         1 <0>         0.1281
     42 H11         9.1039    0.8176    0.7936 H         1 <0>         0.1316
     43 H12         6.8327   -0.1298    0.8072 H         1 <0>         0.1300
     44 H13        -2.4635    0.4649   -0.2729 H         1 <0>         0.4168
     45 H14        -5.5309   -4.4030    0.1327 H         1 <0>         0.2000
     46 H15        -7.4509   -4.0205    0.0181 H         1 <0>         0.1348
     47 H16        -9.8712   -3.6011   -0.0964 H         1 <0>         0.1383
     48 H17        -6.7067    0.1799   -0.3870 H         1 <0>         0.1425
     49 H18        -9.3363    1.1266   -1.4631 H         1 <0>         0.3873
     50 H19       -11.3502   -1.2808   -1.2769 H         1 <0>         0.3883
@<TRIPOS>BOND
     1    1    2 1
     2    1   32 1
     3    1   33 1
     4    1   34 1
     5    2    3 1
     6    2   35 1
     7    2   36 1
     8    3   16 1
     9    3    4 am
    10    4    5 2
    11    4    6 1
    12    6    7 2
    13    6   15 1
    14    7    8 1
    15    7   37 1
    16    8    9 1
    17    8   38 1
    18    9   14 ar
    19    9   10 ar
    20   10   11 ar
    21   10   39 1
    22   11   12 ar
    23   11   40 1
    24   12   13 ar
    25   12   41 1
    26   13   14 ar
    27   13   42 1
    28   14   43 1
    29   15   16 1
    30   16   17 2
    31   17   18 1
    32   18   19 1
    33   18   44 1
    34   19   23 1
    35   19   20 2
    36   20   21 1
    37   21   22 2
    38   21   24 1
    39   22   23 1
    40   22   45 1
    41   24   29 ar
    42   24   25 ar
    43   25   26 ar
    44   25   46 1
    45   26   27 ar
    46   26   47 1
    47   27   28 ar
    48   27   31 1
    49   28   29 ar
    50   28   30 1
    51   29   48 1
    52   30   49 1
    53   31   50 1
@<TRIPOS>MOLECULE
ZINC13639899
   60    64     0     0     0
SMALL
USER_CHARGES
(3aR,4R,9bS)-4-(2,4-dihydroxyphenyl)-N-(4-ethoxyphenyl)-3a,4,5,9b-tetrahydro-3H-cyclopenta[c]quinoline-8-sulfonamide
@<TRIPOS>ATOM
      1 C1          3.7146   -1.0832    1.2692 C.3       1 <0>        -0.1540
      2 C2          2.4034   -0.2994    1.3540 C.3       1 <0>         0.0541
      3 O1          2.3014    0.5810    0.2331 O.3       1 <0>        -0.3130
      4 C3          1.1864    1.3559    0.1561 C.ar      1 <0>         0.1415
      5 C4          1.0237    2.2328   -0.9062 C.ar      1 <0>        -0.1451
      6 C5         -0.1058    3.0239   -0.9824 C.ar      1 <0>        -0.0629
      7 C6         -1.0837    2.9335   -0.0007 C.ar      1 <0>         0.0829
      8 C7         -0.9203    2.0550    1.0622 C.ar      1 <0>        -0.0651
      9 C8          0.2123    1.2685    1.1396 C.ar      1 <0>        -0.2016
     10 N1         -2.2313    3.7305   -0.0802 N.pl3     1 <0>        -1.0609
     11 S1         -3.4266    3.3553   -1.1631 S.o2      1 <0>         2.6898
     12 O2         -4.4608    4.3113   -0.9738 O.2       1 <0>        -0.9589
     13 O3         -2.7904    3.1598   -2.4186 O.2       1 <0>        -0.9516
     14 C9         -4.0903    1.7943   -0.6864 C.ar      1 <0>        -0.7185
     15 C10        -5.2155    1.7405    0.1162 C.ar      1 <0>         0.0178
     16 C11        -5.7337    0.5158    0.4866 C.ar      1 <0>        -0.2075
     17 C12        -5.1240   -0.6562    0.0539 C.ar      1 <0>         0.2681
     18 C13        -3.9976   -0.6067   -0.7475 C.ar      1 <0>        -0.1459
     19 C14        -3.4886    0.6305   -1.1200 C.ar      1 <0>         0.0313
     20 C15        -3.2937   -1.8458   -1.2562 C.3       1 <0>        -0.0105
     21 H1         -3.3133   -1.9192   -2.3435 H         1 <0>         0.0910
     22 C16        -1.8619   -1.7882   -0.7205 C.2       1 <0>        -0.1554
     23 C17        -1.7500   -2.4950    0.3763 C.2       1 <0>        -0.1608
     24 C18        -3.0833   -3.1223    0.7422 C.3       1 <0>        -0.0928
     25 C19        -3.8434   -3.1279   -0.6053 C.3       1 <0>        -0.0942
     26 H2         -3.5797   -4.0056   -1.1955 H         1 <0>         0.1032
     27 C20        -5.3431   -3.0609   -0.3851 C.3       1 <0>         0.2126
     28 H3         -5.6760   -3.9647    0.1252 H         1 <0>         0.1015
     29 N2         -5.6661   -1.8886    0.4363 N.pl3     1 <0>        -0.7397
     30 C21        -6.0414   -2.9493   -1.7159 C.ar      1 <0>        -0.1361
     31 C22        -6.5236   -1.7264   -2.1422 C.ar      1 <0>        -0.0772
     32 C23        -7.1638   -1.6209   -3.3619 C.ar      1 <0>        -0.1507
     33 C24        -7.3241   -2.7435   -4.1622 C.ar      1 <0>         0.1253
     34 C25        -6.8413   -3.9712   -3.7368 C.ar      1 <0>        -0.1723
     35 C26        -6.1945   -4.0735   -2.5146 C.ar      1 <0>         0.1312
     36 O4         -5.7152   -5.2747   -2.0974 O.3       1 <0>        -0.4926
     37 O5         -7.9544   -2.6391   -5.3617 O.3       1 <0>        -0.4978
     38 H4          3.7312   -1.6649    0.3476 H         1 <0>         0.0674
     39 H5          4.5544   -0.3883    1.2754 H         1 <0>         0.0674
     40 H6          3.7925   -1.7548    2.1242 H         1 <0>         0.0792
     41 H7          2.3868    0.2823    2.2756 H         1 <0>         0.0629
     42 H8          1.5637   -0.9943    1.3478 H         1 <0>         0.0625
     43 H9          1.7827    2.3002   -1.6716 H         1 <0>         0.1382
     44 H10        -0.2303    3.7096   -1.8074 H         1 <0>         0.1418
     45 H11        -1.6788    1.9866    1.8280 H         1 <0>         0.1299
     46 H12         0.3397    0.5855    1.9664 H         1 <0>         0.1315
     47 H13        -2.3265    4.5027    0.4991 H         1 <0>         0.4232
     48 H14        -5.6868    2.6526    0.4512 H         1 <0>         0.1409
     49 H15        -6.6124    0.4681    1.1127 H         1 <0>         0.1329
     50 H16        -2.6131    0.6823   -1.7502 H         1 <0>         0.1341
     51 H17        -1.0544   -1.2447   -1.1884 H         1 <0>         0.1254
     52 H18        -0.8375   -2.6145    0.9414 H         1 <0>         0.1235
     53 H19        -3.6074   -2.5127    1.4782 H         1 <0>         0.0803
     54 H20        -2.9434   -4.1386    1.1105 H         1 <0>         0.0712
     55 H21        -6.2356   -1.9652    1.2178 H         1 <0>         0.4109
     56 H22        -6.3995   -0.8517   -1.5210 H         1 <0>         0.1373
     57 H23        -7.5395   -0.6640   -3.6931 H         1 <0>         0.1318
     58 H24        -6.9655   -4.8459   -4.3580 H         1 <0>         0.1363
     59 H25        -6.3495   -5.7950   -1.5854 H         1 <0>         0.3915
     60 H26        -7.3632   -2.4401   -6.1006 H         1 <0>         0.3950
@<TRIPOS>BOND
     1    1    2 1
     2    1   38 1
     3    1   39 1
     4    1   40 1
     5    2    3 1
     6    2   41 1
     7    2   42 1
     8    3    4 1
     9    4    9 ar
    10    4    5 ar
    11    5    6 ar
    12    5   43 1
    13    6    7 ar
    14    6   44 1
    15    7    8 ar
    16    7   10 1
    17    8    9 ar
    18    8   45 1
    19    9   46 1
    20   10   11 1
    21   10   47 1
    22   11   12 2
    23   11   13 2
    24   11   14 1
    25   14   19 ar
    26   14   15 ar
    27   15   16 ar
    28   15   48 1
    29   16   17 ar
    30   16   49 1
    31   17   29 1
    32   17   18 ar
    33   18   19 ar
    34   18   20 1
    35   19   50 1
    36   20   21 1
    37   20   25 1
    38   20   22 1
    39   22   23 2
    40   22   51 1
    41   23   24 1
    42   23   52 1
    43   24   25 1
    44   24   53 1
    45   24   54 1
    46   25   26 1
    47   25   27 1
    48   27   28 1
    49   27   29 1
    50   27   30 1
    51   29   55 1
    52   30   35 ar
    53   30   31 ar
    54   31   32 ar
    55   31   56 1
    56   32   33 ar
    57   32   57 1
    58   33   34 ar
    59   33   37 1
    60   34   35 ar
    61   34   58 1
    62   35   36 1
    63   36   59 1
    64   37   60 1
@<TRIPOS>MOLECULE
ZINC21322900
   52    55     0     0     0
SMALL
USER_CHARGES
2-[[4-amino-5-[(N'E)-N'-[1-(4-bromophenyl)ethylidene]hydrazino]-1,2,4-triazol-3-yl]sulfanyl]-N-(1-naphthyl)acetamide
@<TRIPOS>ATOM
      1 C1          0.0540    1.5067    0.0079 C.3       1 <0>        -0.1617
      2 C2          0.0748   -0.0001   -0.0000 C.2       1 <0>         0.1154
      3 N1          0.0650   -0.6438   -1.1279 N.2       1 <0>        -0.1869
      4 N2          0.0350    0.0627   -2.3373 N.pl3     1 <0>        -0.5578
      5 C3          0.0245   -0.6250   -3.5423 C.2       1 <0>         0.4862
      6 N3          0.0398   -1.9280   -3.6861 N.2       1 <0>        -0.3121
      7 N4          0.0211   -2.2122   -5.0579 N.2       1 <0>        -0.3041
      8 C4         -0.0050   -1.0730   -5.7075 C.2       1 <0>         0.1737
      9 N5         -0.0095   -0.0628   -4.7882 N.pl3     1 <0>        -0.2618
     10 N6         -0.0398    1.2746   -5.0650 N.3       1 <0>        -0.7777
     11 S1         -0.0373   -0.8798   -7.4586 S.3       1 <0>         0.0761
     12 C5         -0.0247   -2.5811   -8.0881 C.3       1 <0>        -0.1455
     13 C6         -0.0505   -2.5595   -9.5947 C.2       1 <0>         0.5388
     14 O1         -0.0749   -1.5006  -10.1857 O.2       1 <0>        -0.5054
     15 N7         -0.0463   -3.7168  -10.2854 N.am      1 <0>        -0.6734
     16 C7         -0.1655   -3.7000  -11.6763 C.ar      1 <0>         0.1524
     17 C8          0.3988   -2.6789  -12.4102 C.ar      1 <0>        -0.1210
     18 C9          0.2858   -2.6528  -13.7970 C.ar      1 <0>        -0.0958
     19 C10        -0.3828   -3.6321  -14.4665 C.ar      1 <0>        -0.1200
     20 C11        -0.9722   -4.6911  -13.7556 C.ar      1 <0>        -0.0376
     21 C12        -0.8597   -4.7312  -12.3438 C.ar      1 <0>        -0.0613
     22 C13        -1.4527   -5.7875  -11.6347 C.ar      1 <0>        -0.1106
     23 C14        -2.1196   -6.7630  -12.3112 C.ar      1 <0>        -0.1123
     24 C15        -2.2272   -6.7268  -13.7000 C.ar      1 <0>        -0.1152
     25 C16        -1.6685   -5.7158  -14.4198 C.ar      1 <0>        -0.1031
     26 C17         0.1064   -0.7436    1.2727 C.ar      1 <0>        -0.0249
     27 C18         0.1229   -0.0541    2.4879 C.ar      1 <0>        -0.0917
     28 C19         0.1466   -0.7558    3.6748 C.ar      1 <0>        -0.0928
     29 C20         0.1661   -2.1403    3.6640 C.ar      1 <0>        -0.0792
     30 C21         0.1557   -2.8298    2.4632 C.ar      1 <0>        -0.0919
     31 C22         0.1257   -2.1407    1.2690 C.ar      1 <0>        -0.0753
     32 Br1         0.2066   -3.0939    5.2964 Br        1 <0>        -0.0453
     33 H1          0.0662    1.8681    1.0468 H         1 <0>         0.0939
     34 H2         -0.8577    1.8634   -0.4937 H         1 <0>         0.0807
     35 H3          0.9382    1.8884   -0.5236 H         1 <0>         0.0807
     36 H4          0.0198    1.1626   -2.3315 H         1 <0>         0.4115
     37 H5         -0.0659    1.6197   -6.1091 H         1 <0>         0.4502
     38 H6         -0.0381    2.0064   -4.2437 H         1 <0>         0.4362
     39 H7          0.8865   -3.0925   -7.7443 H         1 <0>         0.1335
     40 H8         -0.9094   -3.1171   -7.7139 H         1 <0>         0.1331
     41 H9          0.0510   -4.6746   -9.7532 H         1 <0>         0.4393
     42 H10         0.9344   -1.8900  -11.9033 H         1 <0>         0.1411
     43 H11         0.7362   -1.8427  -14.3514 H         1 <0>         0.1278
     44 H12        -0.4596   -3.5950  -15.5431 H         1 <0>         0.1288
     45 H13        -1.3772   -5.8284  -10.5581 H         1 <0>         0.1228
     46 H14        -2.5714   -7.5767  -11.7634 H         1 <0>         0.1247
     47 H15        -2.7616   -7.5128  -14.2129 H         1 <0>         0.1247
     48 H16        -1.7593   -5.7011  -15.4959 H         1 <0>         0.1297
     49 H17         0.1126    1.0258    2.4977 H         1 <0>         0.1401
     50 H18         0.1545   -0.2243    4.6149 H         1 <0>         0.1386
     51 H19         0.1707   -3.9097    2.4618 H         1 <0>         0.1385
     52 H20         0.1169   -2.6796    0.3332 H         1 <0>         0.1458
@<TRIPOS>BOND
     1    1    2 1
     2    1   33 1
     3    1   34 1
     4    1   35 1
     5    2    3 2
     6    2   26 1
     7    3    4 1
     8    4    5 1
     9    4   36 1
    10    5    9 1
    11    5    6 2
    12    6    7 1
    13    7    8 2
    14    8    9 1
    15    8   11 1
    16    9   10 1
    17   10   37 1
    18   10   38 1
    19   11   12 1
    20   12   13 1
    21   12   39 1
    22   12   40 1
    23   13   14 2
    24   13   15 am
    25   15   16 1
    26   15   41 1
    27   16   21 ar
    28   16   17 ar
    29   17   18 ar
    30   17   42 1
    31   18   19 ar
    32   18   43 1
    33   19   20 ar
    34   19   44 1
    35   20   25 ar
    36   20   21 ar
    37   21   22 ar
    38   22   23 ar
    39   22   45 1
    40   23   24 ar
    41   23   46 1
    42   24   25 ar
    43   24   47 1
    44   25   48 1
    45   26   31 ar
    46   26   27 ar
    47   27   28 ar
    48   27   49 1
    49   28   29 ar
    50   28   50 1
    51   29   30 ar
    52   29   32 1
    53   30   31 ar
    54   30   51 1
    55   31   52 1
@<TRIPOS>MOLECULE
ZINC36580571
   74    74     0     0     0
SMALL
USER_CHARGES

@<TRIPOS>ATOM
      1 C1         -5.0630    4.0805    2.6492 C.3       1 <0>        -0.1468
      2 C2         -4.3047    2.8572    3.1683 C.3       1 <0>        -0.0807
      3 C3         -4.8152    2.4952    4.5644 C.3       1 <0>        -0.1507
      4 C4         -4.5305    1.6773    2.2208 C.3       1 <0>        -0.1514
      5 C5         -3.6873    0.5093    2.6631 C.2       1 <0>         0.5357
      6 O1         -2.8852    0.6465    3.5625 O.2       1 <0>        -0.5181
      7 N1         -3.8244   -0.6878    2.0594 N.am      1 <0>        -0.5817
      8 C6         -4.6889   -0.8207    0.8841 C.3       1 <0>         0.1817
      9 H1         -5.7282   -0.8949    1.2041 H         1 <0>         0.0982
     10 C7         -4.5211    0.3866   -0.0020 C.ar      1 <0>        -0.1671
     11 C8         -3.2563    0.9060   -0.2341 C.ar      1 <0>         0.1633
     12 C9         -3.1019    2.0170   -1.0495 C.ar      1 <0>        -0.1866
     13 C10        -4.2121    2.6083   -1.6333 C.ar      1 <0>         0.1535
     14 C11        -5.4767    2.0884   -1.4020 C.ar      1 <0>        -0.1798
     15 C12        -5.6307    0.9748   -0.5900 C.ar      1 <0>         0.1514
     16 O2         -6.8695    0.4625   -0.3671 O.3       1 <0>        -0.4907
     17 O3         -4.0608    3.6976   -2.4316 O.3       1 <0>        -0.4922
     18 O4         -2.1684    0.3265    0.3380 O.3       1 <0>        -0.4700
     19 C13        -4.3091   -2.0622    0.1189 C.2       1 <0>         0.5086
     20 O5         -3.2662   -2.6305    0.3644 O.2       1 <0>        -0.5004
     21 N2         -5.1283   -2.5409   -0.8383 N.am      1 <0>        -0.7118
     22 C14        -4.7591   -3.7477   -1.5822 C.3       1 <0>         0.1791
     23 C15        -3.5135   -3.4663   -2.4249 C.3       1 <0>        -0.1605
     24 C16        -4.4640   -4.8824   -0.5992 C.3       1 <0>        -0.1770
     25 C17        -5.9140   -4.1549   -2.4993 C.3       1 <0>        -0.1145
     26 C18        -7.1108   -4.5887   -1.6505 C.3       1 <0>        -0.0654
     27 C19        -7.2010   -3.7033   -0.4059 C.3       1 <0>        -0.1702
     28 C20        -8.3950   -4.4487   -2.4702 C.3       1 <0>        -0.1431
     29 C21        -6.9330   -6.0480   -1.2264 C.3       1 <0>        -0.1660
     30 C22        -3.1090   -1.8562    2.5783 C.3       1 <0>         0.1898
     31 C23        -2.8167   -1.6556    4.0667 C.3       1 <0>        -0.1765
     32 C24        -3.9712   -3.1064    2.3919 C.3       1 <0>        -0.1509
     33 C25        -1.7921   -2.0269    1.8184 C.3       1 <0>        -0.1249
     34 H2         -4.9021    4.9211    3.3242 H         1 <0>         0.0583
     35 H3         -4.6993    4.3384    1.6546 H         1 <0>         0.0528
     36 H4         -6.1279    3.8535    2.5991 H         1 <0>         0.0519
     37 H5         -3.2397    3.0843    3.2184 H         1 <0>         0.0787
     38 H6         -4.2749    1.6237    4.9341 H         1 <0>         0.0690
     39 H7         -4.6543    3.3358    5.2394 H         1 <0>         0.0531
     40 H8         -5.8801    2.2682    4.5142 H         1 <0>         0.0456
     41 H9         -5.5827    1.3933    2.2386 H         1 <0>         0.0763
     42 H10        -4.2491    1.9656    1.2079 H         1 <0>         0.1039
     43 H11        -2.1170    2.4219   -1.2296 H         1 <0>         0.1426
     44 H12        -6.3414    2.5492   -1.8563 H         1 <0>         0.1435
     45 H13        -7.3201    0.8424    0.3995 H         1 <0>         0.3979
     46 H14        -3.9284    3.4853   -3.3657 H         1 <0>         0.3985
     47 H15        -1.6951   -0.2828   -0.2450 H         1 <0>         0.3940
     48 H16        -5.9624   -2.0863   -1.0346 H         1 <0>         0.4064
     49 H17        -2.6680   -3.2641   -1.7673 H         1 <0>         0.0733
     50 H18        -3.2913   -4.3340   -3.0460 H         1 <0>         0.0638
     51 H19        -3.6937   -2.6002   -3.0617 H         1 <0>         0.0525
     52 H20        -5.2751   -4.9556    0.1253 H         1 <0>         0.0740
     53 H21        -4.3780   -5.8223   -1.1444 H         1 <0>         0.0649
     54 H22        -3.5288   -4.6778   -0.0780 H         1 <0>         0.0816
     55 H23        -6.1990   -3.3074   -3.1228 H         1 <0>         0.0684
     56 H24        -5.5993   -4.9833   -3.1339 H         1 <0>         0.0809
     57 H25        -7.4211   -2.6784   -0.7044 H         1 <0>         0.0542
     58 H26        -7.9947   -4.0707    0.2446 H         1 <0>         0.0503
     59 H27        -6.2515   -3.7301    0.1286 H         1 <0>         0.0870
     60 H28        -8.3307   -5.0794   -3.3568 H         1 <0>         0.0543
     61 H29        -9.2476   -4.7577   -1.8655 H         1 <0>         0.0553
     62 H30        -8.5216   -3.4091   -2.7723 H         1 <0>         0.0540
     63 H31        -6.0239   -6.1458   -0.6331 H         1 <0>         0.0785
     64 H32        -7.7908   -6.3604   -0.6309 H         1 <0>         0.0519
     65 H33        -6.8576   -6.6774   -2.1131 H         1 <0>         0.0531
     66 H34        -3.7549   -1.5340    4.6081 H         1 <0>         0.0422
     67 H35        -2.2844   -2.5249    4.4528 H         1 <0>         0.0485
     68 H36        -2.2025   -0.7650    4.1995 H         1 <0>         0.1157
     69 H37        -4.6027   -2.9843    1.5119 H         1 <0>         0.0674
     70 H38        -3.3269   -3.9755    2.2590 H         1 <0>         0.0699
     71 H39        -4.5981   -3.2499    3.2720 H         1 <0>         0.0325
     72 H40        -1.0156   -1.4315    2.2987 H         1 <0>         0.0299
     73 H41        -1.5016   -3.0774    1.8263 H         1 <0>         0.0486
     74 H42        -1.9209   -1.6933    0.7887 H         1 <0>         0.0907
@<TRIPOS>BOND
     1    1    2 1
     2    1   34 1
     3    1   35 1
     4    1   36 1
     5    2    3 1
     6    2    4 1
     7    2   37 1
     8    3   38 1
     9    3   39 1
    10    3   40 1
    11    4    5 1
    12    4   41 1
    13    4   42 1
    14    5    6 2
    15    5    7 am
    16    7    8 1
    17    7   30 1
    18    8    9 1
    19    8   10 1
    20    8   19 1
    21   10   15 ar
    22   10   11 ar
    23   11   12 ar
    24   11   18 1
    25   12   13 ar
    26   12   43 1
    27   13   14 ar
    28   13   17 1
    29   14   15 ar
    30   14   44 1
    31   15   16 1
    32   16   45 1
    33   17   46 1
    34   18   47 1
    35   19   20 2
    36   19   21 am
    37   21   22 1
    38   21   48 1
    39   22   23 1
    40   22   24 1
    41   22   25 1
    42   23   49 1
    43   23   50 1
    44   23   51 1
    45   24   52 1
    46   24   53 1
    47   24   54 1
    48   25   26 1
    49   25   55 1
    50   25   56 1
    51   26   27 1
    52   26   28 1
    53   26   29 1
    54   27   57 1
    55   27   58 1
    56   27   59 1
    57   28   60 1
    58   28   61 1
    59   28   62 1
    60   29   63 1
    61   29   64 1
    62   29   65 1
    63   30   31 1
    64   30   32 1
    65   30   33 1
    66   31   66 1
    67   31   67 1
    68   31   68 1
    69   32   69 1
    70   32   70 1
    71   32   71 1
    72   33   72 1
    73   33   73 1
    74   33   74 1
@<TRIPOS>MOLECULE
ZINC43553794
   78    81     0     0     0
SMALL
USER_CHARGES

@<TRIPOS>ATOM
      1 C1          0.1793    1.5161   -0.0160 C.3       1 <0>        -0.1654
      2 C2          0.1698   -0.0249   -0.0097 C.3       1 <0>        -0.0303
      3 C3         -1.2773   -0.5053    0.0102 C.3       1 <0>        -0.1022
      4 C4         -1.9653   -0.0269    1.2910 C.3       1 <0>        -0.1411
      5 C5         -1.2597   -0.5990    2.5117 C.3       1 <0>         0.1280
      6 H1         -1.7168   -0.1630    3.4140 H         1 <0>         0.0884
      7 C6          0.2303   -0.2799    2.5290 C.3       1 <0>        -0.0366
      8 C7          0.9188   -0.5715    1.2026 C.3       1 <0>        -0.0488
      9 H2          1.9169   -0.1023    1.2238 H         1 <0>         0.0674
     10 C8          1.1218   -2.0827    1.0505 C.3       1 <0>        -0.1154
     11 C9          1.8899   -2.4055   -0.2336 C.3       1 <0>        -0.1539
     12 C10         1.0839   -1.9228   -1.4381 C.3       1 <0>         0.0988
     13 H3          1.6649   -2.1245   -2.3485 H         1 <0>         0.0797
     14 C11         0.8678   -0.4238   -1.3125 C.3       1 <0>        -0.0480
     15 H4          1.8590    0.0656   -1.3171 H         1 <0>         0.0814
     16 C12         0.0915    0.1013   -2.5206 C.3       1 <0>        -0.1335
     17 C13         0.8615   -0.1978   -3.7811 C.2       1 <0>         0.5334
     18 O1          1.9266   -0.7745   -3.7186 O.2       1 <0>        -0.5349
     19 N1          0.3665    0.1755   -4.9778 N.am      1 <0>        -0.6203
     20 C14        -0.9068    0.8853   -5.1973 C.3       1 <0>         0.0997
     21 C15        -0.7291    1.6074   -6.5562 C.3       1 <0>        -0.1697
     22 C16         0.0939    0.5646   -7.3578 C.3       1 <0>         0.0928
     23 H5         -0.5601   -0.1916   -7.7920 H         1 <0>         0.0771
     24 C17         1.0100   -0.0521   -6.2800 C.3       1 <0>         0.1126
     25 O2          0.8681    1.2047   -8.3742 O.3       1 <0>        -0.5580
     26 O3         -0.1518   -2.6240   -1.5272 O.3       1 <0>        -0.5592
     27 C18         0.4422    1.1730    2.9766 C.3       1 <0>        -0.1481
     28 C19         0.8636   -1.1437    3.6449 C.3       1 <0>         0.0772
     29 O4          0.2621   -0.8170    4.8994 O.3       1 <0>        -0.5687
     30 O5         -1.4566   -2.0149    2.5678 O.3       1 <0>        -0.3519
     31 C20        -2.5346   -2.4558    3.2432 C.2       1 <0>         0.6475
     32 O6         -3.2878   -1.6615    3.7707 O.2       1 <0>        -0.5680
     33 N2         -2.7783   -3.7782    3.3343 N.am      1 <0>        -0.7091
     34 C21        -3.9513   -4.2580    4.0692 C.3       1 <0>         0.1641
     35 C22        -3.6115   -4.3671    5.5570 C.3       1 <0>        -0.1308
     36 C23        -4.8366   -4.8681    6.3245 C.3       1 <0>        -0.1174
     37 C24        -5.2444   -6.2434    5.7924 C.3       1 <0>        -0.1232
     38 C25        -5.5842   -6.1343    4.3046 C.3       1 <0>        -0.1159
     39 C26        -4.3592   -5.6333    3.5371 C.3       1 <0>        -0.1266
     40 H6          1.2041    1.8736    0.0852 H         1 <0>         0.0555
     41 H7         -0.2408    1.8782   -0.9544 H         1 <0>         0.0584
     42 H8         -0.4186    1.8866    0.8167 H         1 <0>         0.0673
     43 H9         -1.8302   -0.1104   -0.8417 H         1 <0>         0.0582
     44 H10        -1.3121   -1.5948   -0.0122 H         1 <0>         0.0907
     45 H11        -1.9980    1.0568    1.3347 H         1 <0>         0.0790
     46 H12        -3.0027   -0.3922    1.2792 H         1 <0>         0.0635
     47 H13         1.7190   -2.4891    1.8681 H         1 <0>         0.0559
     48 H14         0.1553   -2.5831    1.0231 H         1 <0>         0.0839
     49 H15         2.8564   -1.9011   -0.2141 H         1 <0>         0.0679
     50 H16         2.0436   -3.4824   -0.3031 H         1 <0>         0.0625
     51 H17        -0.8828   -0.3852   -2.5659 H         1 <0>         0.1040
     52 H18        -0.0444    1.1786   -2.4249 H         1 <0>         0.0969
     53 H19        -1.7325    0.1757   -5.2499 H         1 <0>         0.0752
     54 H20        -1.0789    1.6105   -4.4020 H         1 <0>         0.0819
     55 H21        -1.6934    1.7917   -7.0298 H         1 <0>         0.0896
     56 H22        -0.1713    2.5360   -6.4352 H         1 <0>         0.0875
     57 H23         1.9868    0.4312   -6.3003 H         1 <0>         0.0803
     58 H24         1.1197   -1.1219   -6.4573 H         1 <0>         0.0760
     59 H25         0.3397    1.6749   -9.0335 H         1 <0>         0.3859
     60 H26        -0.0546   -3.5810   -1.6268 H         1 <0>         0.3723
     61 H27         0.1774    1.2711    4.0294 H         1 <0>         0.0726
     62 H28         1.4880    1.4470    2.8379 H         1 <0>         0.0607
     63 H29        -0.1884    1.8325    2.3803 H         1 <0>         0.0638
     64 H30         0.6977   -2.1985    3.4262 H         1 <0>         0.0565
     65 H31         1.9346   -0.9467    3.6933 H         1 <0>         0.0440
     66 H32         0.6117   -1.3218    5.6465 H         1 <0>         0.3780
     67 H33        -2.1770   -4.4123    2.9133 H         1 <0>         0.4033
     68 H34        -4.7756   -3.5575    3.9352 H         1 <0>         0.0901
     69 H35        -2.7873   -5.0676    5.6911 H         1 <0>         0.0638
     70 H36        -3.3210   -3.3873    5.9361 H         1 <0>         0.0690
     71 H37        -4.5945   -4.9458    7.3845 H         1 <0>         0.0659
     72 H38        -5.6608   -4.1676    6.1905 H         1 <0>         0.0652
     73 H39        -4.4202   -6.9439    5.9264 H         1 <0>         0.0630
     74 H40        -6.1172   -6.6004    6.3392 H         1 <0>         0.0650
     75 H41        -5.8748   -7.1141    3.9255 H         1 <0>         0.0690
     76 H42        -6.4085   -5.4338    4.1706 H         1 <0>         0.0662
     77 H43        -4.6012   -5.5556    2.4771 H         1 <0>         0.0705
     78 H44        -3.5349   -6.3338    3.6711 H         1 <0>         0.0695
@<TRIPOS>BOND
     1    1    2 1
     2    1   40 1
     3    1   41 1
     4    1   42 1
     5    2    8 1
     6    2   14 1
     7    2    3 1
     8    3    4 1
     9    3   43 1
    10    3   44 1
    11    4    5 1
    12    4   45 1
    13    4   46 1
    14    5    6 1
    15    5    7 1
    16    5   30 1
    17    7    8 1
    18    7   27 1
    19    7   28 1
    20    8    9 1
    21    8   10 1
    22   10   11 1
    23   10   47 1
    24   10   48 1
    25   11   12 1
    26   11   49 1
    27   11   50 1
    28   12   13 1
    29   12   14 1
    30   12   26 1
    31   14   15 1
    32   14   16 1
    33   16   17 1
    34   16   51 1
    35   16   52 1
    36   17   18 2
    37   17   19 am
    38   19   24 1
    39   19   20 1
    40   20   21 1
    41   20   53 1
    42   20   54 1
    43   21   22 1
    44   21   55 1
    45   21   56 1
    46   22   23 1
    47   22   24 1
    48   22   25 1
    49   24   57 1
    50   24   58 1
    51   25   59 1
    52   26   60 1
    53   27   61 1
    54   27   62 1
    55   27   63 1
    56   28   29 1
    57   28   64 1
    58   28   65 1
    59   29   66 1
    60   30   31 1
    61   31   32 2
    62   31   33 am
    63   33   34 1
    64   33   67 1
    65   34   39 1
    66   34   35 1
    67   34   68 1
    68   35   36 1
    69   35   69 1
    70   35   70 1
    71   36   37 1
    72   36   71 1
    73   36   72 1
    74   37   38 1
    75   37   73 1
    76   37   74 1
    77   38   39 1
    78   38   75 1
    79   38   76 1
    80   39   77 1
    81   39   78 1
@<TRIPOS>MOLECULE
ZINC04236621
   77    79     0     0     0
SMALL
USER_CHARGES
[6-hydroxy-1-(hydroxymethyl)-5-[(2-methoxyphenyl)methylcarbamoylmethyl]-1,4a-dimethyl-decalin-2-yl] isopropylaminoformate
@<TRIPOS>ATOM
      1 C1         -5.9694   -3.8743    1.5840 C.3       1 <0>        -0.1665
      2 C2         -4.9331   -4.1942    2.6632 C.3       1 <0>         0.1534
      3 C3         -4.9078   -5.7032    2.9145 C.3       1 <0>        -0.1618
      4 N1         -3.6101   -3.7514    2.2163 N.am      1 <0>        -0.7074
      5 C4         -3.2264   -2.4738    2.4091 C.2       1 <0>         0.6419
      6 O1         -3.9779   -1.6894    2.9536 O.2       1 <0>        -0.5783
      7 O2         -2.0105   -2.0668    1.9984 O.3       1 <0>        -0.3363
      8 C5         -1.6645   -0.6773    2.2389 C.3       1 <0>         0.1255
      9 H1         -2.1747   -0.3258    3.1357 H         1 <0>         0.0836
     10 C6         -2.0966    0.1706    1.0409 C.3       1 <0>        -0.1399
     11 C7         -1.7320    1.6347    1.2943 C.3       1 <0>        -0.1113
     12 C8         -0.2191    1.7576    1.4869 C.3       1 <0>        -0.0469
     13 C9          0.2130    0.9097    2.6849 C.3       1 <0>        -0.0614
     14 H2         -0.2972    1.2612    3.5817 H         1 <0>         0.0766
     15 C10        -0.1516   -0.5545    2.4315 C.3       1 <0>        -0.0441
     16 C11         0.2804   -1.4023    3.6296 C.3       1 <0>        -0.1395
     17 C12         0.5645   -1.0479    1.1727 C.3       1 <0>         0.0546
     18 O3          0.3833   -2.4595    1.0440 O.3       1 <0>        -0.5617
     19 C13         1.7258    1.0325    2.8776 C.3       1 <0>        -0.1159
     20 C14         2.0904    2.4967    3.1310 C.3       1 <0>        -0.1500
     21 C15         1.6583    3.3446    1.9329 C.3       1 <0>         0.1038
     22 H3          1.9181    4.3877    2.1135 H         1 <0>         0.0760
     23 C16         0.1455    3.2217    1.7403 C.3       1 <0>        -0.0465
     24 H4         -0.3647    3.5732    2.6371 H         1 <0>         0.0874
     25 C17        -0.2866    4.0696    0.5423 C.3       1 <0>        -0.1408
     26 C18        -0.0398    5.5257    0.8422 C.2       1 <0>         0.5156
     27 O4          0.4349    5.8530    1.9092 O.2       1 <0>        -0.5418
     28 N2         -0.3467    6.4641   -0.0752 N.am      1 <0>        -0.7238
     29 C19        -0.1068    7.8796    0.2165 C.3       1 <0>         0.1731
     30 C20        -0.5324    8.7148   -0.9636 C.ar      1 <0>        -0.1449
     31 C21         0.4129    9.1849   -1.8548 C.ar      1 <0>        -0.0619
     32 C22         0.0226    9.9471   -2.9401 C.ar      1 <0>        -0.1587
     33 C23        -1.3132   10.2497   -3.1309 C.ar      1 <0>        -0.0706
     34 C24        -2.2615    9.7865   -2.2400 C.ar      1 <0>        -0.2112
     35 C25        -1.8729    9.0169   -1.1527 C.ar      1 <0>         0.1440
     36 O5         -2.8041    8.5603   -0.2745 O.3       1 <0>        -0.3105
     37 C26        -4.1654    8.9103   -0.5320 C.3       1 <0>         0.0257
     38 O6          2.3272    2.8837    0.7572 O.3       1 <0>        -0.5590
     39 C27         0.4970    1.2642    0.2281 C.3       1 <0>        -0.1576
     40 H5         -5.7053   -4.3919    0.6618 H         1 <0>         0.0581
     41 H6         -6.9538   -4.2038    1.9165 H         1 <0>         0.0686
     42 H7         -5.9875   -2.7993    1.4049 H         1 <0>         0.0608
     43 H8         -5.1972   -3.6766    3.5854 H         1 <0>         0.0900
     44 H9         -4.1695   -5.9312    3.6834 H         1 <0>         0.0637
     45 H10        -5.8922   -6.0327    3.2470 H         1 <0>         0.0768
     46 H11        -4.6437   -6.2208    1.9923 H         1 <0>         0.0633
     47 H12        -3.0102   -4.3776    1.7817 H         1 <0>         0.4059
     48 H13        -1.5864   -0.1810    0.1441 H         1 <0>         0.0779
     49 H14        -3.1744    0.0830    0.9036 H         1 <0>         0.0691
     50 H15        -2.2422    1.9862    2.1911 H         1 <0>         0.0671
     51 H16        -2.0398    2.2388    0.4408 H         1 <0>         0.0730
     52 H17        -0.2297   -1.0508    4.5264 H         1 <0>         0.0495
     53 H18         0.0207   -2.4454    3.4491 H         1 <0>         0.0702
     54 H19         1.3582   -1.3148    3.7668 H         1 <0>         0.0589
     55 H20         0.1489   -0.5470    0.2984 H         1 <0>         0.0831
     56 H21         1.6285   -0.8236    1.2485 H         1 <0>         0.0472
     57 H22         0.8116   -2.8417    0.2658 H         1 <0>         0.3698
     58 H23         2.0336    0.4285    3.7311 H         1 <0>         0.0653
     59 H24         2.2360    0.6810    1.9808 H         1 <0>         0.0773
     60 H25         1.5802    2.8482    4.0278 H         1 <0>         0.0708
     61 H26         3.1682    2.5842    3.2682 H         1 <0>         0.0645
     62 H27         0.2886    3.7771   -0.3362 H         1 <0>         0.1070
     63 H28        -1.3481    3.9130    0.3502 H         1 <0>         0.0943
     64 H29        -0.7264    6.2023   -0.9285 H         1 <0>         0.3999
     65 H30        -0.6820    8.1722    1.0949 H         1 <0>         0.0778
     66 H31         0.9547    8.0362    0.4085 H         1 <0>         0.0739
     67 H32         1.4572    8.9534   -1.7056 H         1 <0>         0.1315
     68 H33         0.7627   10.3102   -3.6379 H         1 <0>         0.1271
     69 H34        -1.6151   10.8490   -3.9771 H         1 <0>         0.1269
     70 H35        -3.3046   10.0233   -2.3892 H         1 <0>         0.1302
     71 H36        -4.2682    9.9954   -0.5300 H         1 <0>         0.0568
     72 H37        -4.4635    8.5189   -1.5046 H         1 <0>         0.0566
     73 H38        -4.8030    8.4835    0.2423 H         1 <0>         0.1019
     74 H39         3.2916    2.9329    0.8086 H         1 <0>         0.3680
     75 H40        -0.1808    0.6404   -0.3547 H         1 <0>         0.0539
     76 H41         1.3727    0.6811    0.5132 H         1 <0>         0.0753
     77 H42         0.8094    2.1195   -0.3711 H         1 <0>         0.0751
@<TRIPOS>BOND
     1    1    2 1
     2    1   40 1
     3    1   41 1
     4    1   42 1
     5    2    3 1
     6    2    4 1
     7    2   43 1
     8    3   44 1
     9    3   45 1
    10    3   46 1
    11    4    5 am
    12    4   47 1
    13    5    6 2
    14    5    7 1
    15    7    8 1
    16    8    9 1
    17    8   15 1
    18    8   10 1
    19   10   11 1
    20   10   48 1
    21   10   49 1
    22   11   12 1
    23   11   50 1
    24   11   51 1
    25   12   23 1
    26   12   13 1
    27   12   39 1
    28   13   14 1
    29   13   15 1
    30   13   19 1
    31   15   16 1
    32   15   17 1
    33   16   52 1
    34   16   53 1
    35   16   54 1
    36   17   18 1
    37   17   55 1
    38   17   56 1
    39   18   57 1
    40   19   20 1
    41   19   58 1
    42   19   59 1
    43   20   21 1
    44   20   60 1
    45   20   61 1
    46   21   22 1
    47   21   23 1
    48   21   38 1
    49   23   24 1
    50   23   25 1
    51   25   26 1
    52   25   62 1
    53   25   63 1
    54   26   27 2
    55   26   28 am
    56   28   29 1
    57   28   64 1
    58   29   30 1
    59   29   65 1
    60   29   66 1
    61   30   35 ar
    62   30   31 ar
    63   31   32 ar
    64   31   67 1
    65   32   33 ar
    66   32   68 1
    67   33   34 ar
    68   33   69 1
    69   34   35 ar
    70   34   70 1
    71   35   36 1
    72   36   37 1
    73   37   71 1
    74   37   72 1
    75   37   73 1
    76   38   74 1
    77   39   75 1
    78   39   76 1
    79   39   77 1
@<TRIPOS>MOLECULE
ZINC14006011
   60    63     0     0     0
SMALL
USER_CHARGES
N-(4-anilinophenyl)-2-[[(E)-3-phenylprop-2-enoyl]carbamothioylamino]benzamide
@<TRIPOS>ATOM
      1 C1          0.3935   15.4413    0.3397 C.ar      1 <0>        -0.1034
      2 C2          1.3542   16.0605   -0.4410 C.ar      1 <0>        -0.1228
      3 C3          2.5249   15.4015   -0.7517 C.ar      1 <0>        -0.0893
      4 C4          2.7404   14.1044   -0.2754 C.ar      1 <0>        -0.0848
      5 C5          1.7628   13.4838    0.5088 C.ar      1 <0>        -0.0982
      6 C6          0.5996   14.1579    0.8152 C.ar      1 <0>        -0.1235
      7 C7          3.9870   13.3938   -0.6028 C.2       1 <0>         0.0041
      8 C8          4.1914   12.1428   -0.1416 C.2       1 <0>        -0.2249
      9 C9          5.4306   11.4365   -0.4671 C.2       1 <0>         0.5244
     10 O1          6.2769   11.9775   -1.1538 O.2       1 <0>        -0.4106
     11 N1          5.6347   10.1865   -0.0062 N.am      1 <0>        -0.6359
     12 C10         6.7763    9.5358   -0.3060 C.2       1 <0>         0.5174
     13 S1          7.9671   10.2970   -1.2723 S.2       1 <0>        -0.4945
     14 N2          6.9804    8.2858    0.1548 N.pl3     1 <0>        -0.6089
     15 C11         8.2043    7.6572   -0.0568 C.ar      1 <0>         0.1918
     16 C12         9.3892    8.3610    0.1145 C.ar      1 <0>        -0.0824
     17 C13        10.6014    7.7356   -0.0954 C.ar      1 <0>        -0.0784
     18 C14        10.6471    6.4043   -0.4772 C.ar      1 <0>        -0.1174
     19 C15         9.4820    5.6885   -0.6469 C.ar      1 <0>        -0.0816
     20 C16         8.2470    6.3093   -0.4438 C.ar      1 <0>        -0.1493
     21 C17         6.9961    5.5507   -0.6292 C.2       1 <0>         0.5671
     22 O2          5.9240    6.1214   -0.5671 O.2       1 <0>        -0.5305
     23 N3          7.0409    4.2249   -0.8674 N.am      1 <0>        -0.6622
     24 C18         5.8526    3.4896   -0.9610 C.ar      1 <0>         0.1098
     25 C19         5.8012    2.1885   -0.4779 C.ar      1 <0>        -0.1072
     26 C20         4.6300    1.4637   -0.5701 C.ar      1 <0>        -0.1436
     27 C21         3.5028    2.0357   -1.1461 C.ar      1 <0>         0.1677
     28 C22         3.5558    3.3352   -1.6340 C.ar      1 <0>        -0.1422
     29 C23         4.7256    4.0618   -1.5365 C.ar      1 <0>        -0.0842
     30 N4          2.3158    1.3009   -1.2401 N.pl3     1 <0>        -0.6857
     31 C24         1.0828    1.9504   -1.1434 C.ar      1 <0>         0.1866
     32 C25        -0.0595    1.3573   -1.6664 C.ar      1 <0>        -0.1740
     33 C26        -1.2757    2.0050   -1.5746 C.ar      1 <0>        -0.0821
     34 C27        -1.3593    3.2374   -0.9527 C.ar      1 <0>        -0.1594
     35 C28        -0.2243    3.8307   -0.4309 C.ar      1 <0>        -0.0828
     36 C29         0.9962    3.1912   -0.5243 C.ar      1 <0>        -0.1740
     37 H1         -0.5215   15.9625    0.5793 H         1 <0>         0.1260
     38 H2          1.1862   17.0622   -0.8081 H         1 <0>         0.1284
     39 H3          3.2736   15.8860   -1.3610 H         1 <0>         0.1306
     40 H4          1.9201   12.4806    0.8766 H         1 <0>         0.1271
     41 H5         -0.1545   13.6816    1.4241 H         1 <0>         0.1270
     42 H6          4.7382   13.8740   -1.2123 H         1 <0>         0.1411
     43 H7          3.4402   11.6626    0.4679 H         1 <0>         0.1329
     44 H8          4.9601    9.7552    0.5412 H         1 <0>         0.4128
     45 H9          6.2746    7.8242    0.6339 H         1 <0>         0.4172
     46 H10         9.3620    9.3986    0.4126 H         1 <0>         0.1484
     47 H11        11.5202    8.2872    0.0391 H         1 <0>         0.1371
     48 H12        11.6010    5.9241   -0.6386 H         1 <0>         0.1350
     49 H13         9.5234    4.6501   -0.9406 H         1 <0>         0.1308
     50 H14         7.8963    3.7799   -0.9740 H         1 <0>         0.4117
     51 H15         6.6775    1.7440   -0.0298 H         1 <0>         0.1298
     52 H16         4.5900    0.4520   -0.1941 H         1 <0>         0.1296
     53 H17         2.6807    3.7786   -2.0856 H         1 <0>         0.1308
     54 H18         4.7655    5.0738   -1.9115 H         1 <0>         0.1402
     55 H19         2.3490    0.3406   -1.3724 H         1 <0>         0.4101
     56 H20         0.0044    0.3929   -2.1482 H         1 <0>         0.1227
     57 H21        -2.1633    1.5466   -1.9849 H         1 <0>         0.1243
     58 H22        -2.3124    3.7399   -0.8785 H         1 <0>         0.1213
     59 H23        -0.2924    4.7951    0.0505 H         1 <0>         0.1230
     60 H24         1.8822    3.6553   -0.1170 H         1 <0>         0.1268
@<TRIPOS>BOND
     1    1    6 ar
     2    1    2 ar
     3    1   37 1
     4    2    3 ar
     5    2   38 1
     6    3    4 ar
     7    3   39 1
     8    4    5 ar
     9    4    7 1
    10    5    6 ar
    11    5   40 1
    12    6   41 1
    13    7    8 2
    14    7   42 1
    15    8    9 1
    16    8   43 1
    17    9   10 2
    18    9   11 am
    19   11   12 1
    20   11   44 1
    21   12   13 2
    22   12   14 1
    23   14   15 1
    24   14   45 1
    25   15   20 ar
    26   15   16 ar
    27   16   17 ar
    28   16   46 1
    29   17   18 ar
    30   17   47 1
    31   18   19 ar
    32   18   48 1
    33   19   20 ar
    34   19   49 1
    35   20   21 1
    36   21   22 2
    37   21   23 am
    38   23   24 1
    39   23   50 1
    40   24   29 ar
    41   24   25 ar
    42   25   26 ar
    43   25   51 1
    44   26   27 ar
    45   26   52 1
    46   27   28 ar
    47   27   30 1
    48   28   29 ar
    49   28   53 1
    50   29   54 1
    51   30   31 1
    52   30   55 1
    53   31   36 ar
    54   31   32 ar
    55   32   33 ar
    56   32   56 1
    57   33   34 ar
    58   33   57 1
    59   34   35 ar
    60   34   58 1
    61   35   36 ar
    62   35   59 1
    63   36   60 1
@<TRIPOS>MOLECULE
ZINC21316178
   49    52     0     0     0
SMALL
USER_CHARGES
2-[[4-amino-5-[(N'E)-N'-[(2,3-dichlorophenyl)methylene]hydrazino]-1,2,4-triazol-3-yl]sulfanyl]-N-(1-naphthyl)acetamide
@<TRIPOS>ATOM
      1 C1         -3.6801   19.1053   -2.0520 C.ar      1 <0>        -0.1152
      2 C2         -2.9460   17.9236   -1.9713 C.ar      1 <0>        -0.1124
      3 C3         -3.4300   16.8428   -1.2994 C.ar      1 <0>        -0.1105
      4 C4         -4.6842   16.9182   -0.6735 C.ar      1 <0>        -0.0613
      5 C5         -5.4333   18.1177   -0.7586 C.ar      1 <0>        -0.0376
      6 C6         -4.9013   19.2130   -1.4611 C.ar      1 <0>        -0.1031
      7 C7         -6.6909   18.1933   -0.1363 C.ar      1 <0>        -0.1201
      8 C8         -7.1817   17.1167    0.5376 C.ar      1 <0>        -0.0958
      9 C9         -6.4572   15.9317    0.6238 C.ar      1 <0>        -0.1211
     10 C10        -5.2203   15.8169    0.0269 C.ar      1 <0>         0.1526
     11 N1         -4.5016   14.6236    0.1194 N.am      1 <0>        -0.6735
     12 C11        -5.1526   13.4435    0.1237 C.2       1 <0>         0.5389
     13 O1         -6.3652   13.4198    0.1301 O.2       1 <0>        -0.5054
     14 C12        -4.3738   12.1533    0.1206 C.3       1 <0>        -0.1453
     15 S1         -5.5255   10.7518    0.1277 S.3       1 <0>         0.0752
     16 C13        -4.4753    9.3370    0.1232 C.2       1 <0>         0.1732
     17 N2         -3.1636    9.3505    0.1163 N.2       1 <0>        -0.3051
     18 N3         -2.7171    8.0225    0.1202 N.2       1 <0>        -0.3082
     19 C14        -3.7699    7.2413    0.1211 C.2       1 <0>         0.4868
     20 N4         -4.8841    8.0337    0.1263 N.pl3     1 <0>        -0.2618
     21 N5         -6.1788    7.5984    0.1330 N.3       1 <0>        -0.7777
     22 N6         -3.7558    5.8539    0.1225 N.pl3     1 <0>        -0.5615
     23 N7         -2.5355    5.1657    0.1165 N.2       1 <0>        -0.1580
     24 C15        -2.5224    3.8671    0.1178 C.2       1 <0>         0.0706
     25 C16        -1.2383    3.1430    0.1116 C.ar      1 <0>        -0.0277
     26 C17        -1.2203    1.7458    0.1080 C.ar      1 <0>        -0.0785
     27 C18        -0.0157    1.0743    0.1074 C.ar      1 <0>        -0.1072
     28 C19         1.1746    1.7801    0.1002 C.ar      1 <0>        -0.0869
     29 C20         1.1664    3.1645    0.0988 C.ar      1 <0>        -0.0379
     30 C21        -0.0330    3.8508    0.1042 C.ar      1 <0>        -0.0168
     31 Cl1        -0.0427    5.5868    0.1025 Cl        1 <0>         0.0107
     32 Cl2         2.6655    4.0398    0.0897 Cl        1 <0>        -0.0436
     33 H1         -3.2737   19.9483   -2.5911 H         1 <0>         0.1247
     34 H2         -1.9789   17.8642   -2.4485 H         1 <0>         0.1247
     35 H3         -2.8501   15.9333   -1.2450 H         1 <0>         0.1228
     36 H4         -5.4588   20.1354   -1.5313 H         1 <0>         0.1296
     37 H5         -7.2675   19.1048   -0.1921 H         1 <0>         0.1288
     38 H6         -8.1490   17.1837    1.0133 H         1 <0>         0.1277
     39 H7         -6.8691   15.0923    1.1643 H         1 <0>         0.1411
     40 H8         -3.4040   14.6466    0.1888 H         1 <0>         0.4393
     41 H9         -3.7451   12.1067   -0.7808 H         1 <0>         0.1329
     42 H10        -3.7357   12.1080    1.0154 H         1 <0>         0.1332
     43 H11        -6.3965    6.5202    0.1350 H         1 <0>         0.4367
     44 H12        -7.0037    8.3261    0.1364 H         1 <0>         0.4495
     45 H13        -4.7028    5.2943    0.1283 H         1 <0>         0.4074
     46 H14        -3.4694    3.3075    0.1235 H         1 <0>         0.1339
     47 H15        -2.1480    1.1928    0.1092 H         1 <0>         0.1434
     48 H16        -0.0014   -0.0056    0.1081 H         1 <0>         0.1439
     49 H17         2.1146    1.2483    0.0959 H         1 <0>         0.1446
@<TRIPOS>BOND
     1    1    6 ar
     2    1    2 ar
     3    1   33 1
     4    2    3 ar
     5    2   34 1
     6    3    4 ar
     7    3   35 1
     8    4   10 ar
     9    4    5 ar
    10    5    6 ar
    11    5    7 ar
    12    6   36 1
    13    7    8 ar
    14    7   37 1
    15    8    9 ar
    16    8   38 1
    17    9   10 ar
    18    9   39 1
    19   10   11 1
    20   11   12 am
    21   11   40 1
    22   12   13 2
    23   12   14 1
    24   14   15 1
    25   14   41 1
    26   14   42 1
    27   15   16 1
    28   16   20 1
    29   16   17 2
    30   17   18 1
    31   18   19 2
    32   19   20 1
    33   19   22 1
    34   20   21 1
    35   21   43 1
    36   21   44 1
    37   22   23 1
    38   22   45 1
    39   23   24 2
    40   24   25 1
    41   24   46 1
    42   25   30 ar
    43   25   26 ar
    44   26   27 ar
    45   26   47 1
    46   27   28 ar
    47   27   48 1
    48   28   29 ar
    49   28   49 1
    50   29   30 ar
    51   29   32 1
    52   30   31 1
@<TRIPOS>MOLECULE
ZINC36525563
   79    81     0     0     0
SMALL
USER_CHARGES

@<TRIPOS>ATOM
      1 C1         -3.1829   -2.0077    0.4553 C.3       1 <0>        -0.1486
      2 C2         -2.4681   -3.3428    0.2774 C.3       1 <0>        -0.0603
      3 H1         -3.2152   -4.0258   -0.2029 H         1 <0>         0.0799
      4 C3         -1.2996   -3.2383   -0.6937 C.3       1 <0>        -0.0915
      5 H2         -1.3429   -2.2336   -1.1643 H         1 <0>         0.0869
      6 C4          0.0580   -3.3686   -0.0131 C.3       1 <0>        -0.0905
      7 C5         -0.0264   -4.1593    1.2940 C.3       1 <0>        -0.0992
      8 H3          0.9440   -4.5138    1.6622 H         1 <0>         0.0790
      9 C6         -1.1502   -5.2077    1.3092 C.3       1 <0>        -0.1494
     10 C7         -2.0750   -3.9955    1.5973 C.3       1 <0>        -0.0845
     11 H4         -2.9381   -4.2475    2.2355 H         1 <0>         0.0767
     12 C8         -0.8760   -3.4167    2.3454 C.3       1 <0>        -0.0767
     13 C9         -0.7076   -1.9005    2.3445 C.3       1 <0>        -0.1391
     14 C10        -0.7022   -3.9884    3.7653 C.3       1 <0>        -0.1317
     15 C11        -1.4363   -4.2434   -1.8095 C.2       1 <0>         0.5226
     16 O1         -2.0806   -5.2565   -1.6375 O.2       1 <0>        -0.5312
     17 N1         -0.8426   -4.0161   -2.9978 N.am      1 <0>        -0.5854
     18 C12         0.0735   -2.8836   -3.1542 C.3       1 <0>         0.0689
     19 C13        -1.1133   -4.9014   -4.1333 C.3       1 <0>         0.1738
     20 H5         -1.7811   -5.7030   -3.8178 H         1 <0>         0.1361
     21 C14        -1.7630   -4.1131   -5.2412 C.ar      1 <0>        -0.1701
     22 C15        -0.9892   -3.3145   -6.0698 C.ar      1 <0>         0.1589
     23 C16        -1.5870   -2.5891   -7.0894 C.ar      1 <0>        -0.1840
     24 C17        -2.9586   -2.6626   -7.2806 C.ar      1 <0>         0.1537
     25 C18        -3.7322   -3.4618   -6.4525 C.ar      1 <0>        -0.1826
     26 C19        -3.1338   -4.1906   -5.4356 C.ar      1 <0>         0.1637
     27 O2         -3.8913   -4.9775   -4.6271 O.3       1 <0>        -0.4869
     28 O3         -3.5445   -1.9510   -8.2791 O.3       1 <0>        -0.4927
     29 O4          0.3549   -3.2425   -5.8825 O.3       1 <0>        -0.4810
     30 C20         0.1813   -5.4921   -4.6294 C.2       1 <0>         0.5114
     31 O5          1.2270   -5.2022   -4.0879 O.2       1 <0>        -0.5103
     32 N2          0.1769   -6.3427   -5.6749 N.am      1 <0>        -0.7269
     33 C21         1.4354   -6.9170   -6.1573 C.3       1 <0>         0.1770
     34 C22         2.2611   -5.8292   -6.8471 C.3       1 <0>        -0.1671
     35 C23         2.2240   -7.4830   -4.9747 C.3       1 <0>        -0.1932
     36 C24         1.1353   -8.0385   -7.1537 C.3       1 <0>        -0.1157
     37 C25        -0.0070   -8.9042   -6.6185 C.3       1 <0>        -0.0678
     38 C26        -1.3470   -8.3001   -7.0432 C.3       1 <0>        -0.1525
     39 C27         0.1169  -10.3198   -7.1857 C.3       1 <0>        -0.1412
     40 C28         0.0667   -8.9586   -5.0912 C.3       1 <0>        -0.1727
     41 H6         -2.5056   -1.2923    0.9216 H         1 <0>         0.0626
     42 H7         -3.4957   -1.6306   -0.5184 H         1 <0>         0.0526
     43 H8         -4.0584   -2.1460    1.0897 H         1 <0>         0.0597
     44 H9          0.7393   -3.9078   -0.6983 H         1 <0>         0.0651
     45 H10         0.5048   -2.3862    0.1446 H         1 <0>         0.0807
     46 H11        -1.3426   -5.6892    0.3534 H         1 <0>         0.0836
     47 H12        -1.0991   -5.9306    2.1205 H         1 <0>         0.0799
     48 H13        -0.6519   -1.5418    1.3168 H         1 <0>         0.0612
     49 H14        -1.5598   -1.4400    2.8444 H         1 <0>         0.0552
     50 H15         0.2091   -1.6365    2.8717 H         1 <0>         0.0534
     51 H16         0.2233   -3.6094    4.1988 H         1 <0>         0.0571
     52 H17        -1.5453   -3.6838    4.3854 H         1 <0>         0.0567
     53 H18        -0.6615   -5.0765    3.7164 H         1 <0>         0.0578
     54 H19         0.5993   -2.7092   -2.2154 H         1 <0>         0.0698
     55 H20         0.7961   -3.1064   -3.9393 H         1 <0>         0.1103
     56 H21        -0.4931   -1.9925   -3.4242 H         1 <0>         0.0459
     57 H22        -0.9845   -1.9666   -7.7343 H         1 <0>         0.1418
     58 H23        -4.8004   -3.5188   -6.6011 H         1 <0>         0.1427
     59 H24        -4.2273   -4.5256   -3.8410 H         1 <0>         0.3998
     60 H25        -3.6008   -2.4257   -9.1196 H         1 <0>         0.3982
     61 H26         0.8627   -3.8473   -6.4405 H         1 <0>         0.3887
     62 H27        -0.6595   -6.5746   -6.1080 H         1 <0>         0.4032
     63 H28         2.5519   -5.0751   -6.1158 H         1 <0>         0.0731
     64 H29         3.1545   -6.2742   -7.2851 H         1 <0>         0.0708
     65 H30         1.6650   -5.3634   -7.6319 H         1 <0>         0.0521
     66 H31         1.5574   -8.0658   -4.3390 H         1 <0>         0.0903
     67 H32         3.0247   -8.1232   -5.3450 H         1 <0>         0.0567
     68 H33         2.6518   -6.6632   -4.3975 H         1 <0>         0.0797
     69 H34         0.8454   -7.6059   -8.1113 H         1 <0>         0.0693
     70 H35         2.0253   -8.6535   -7.2875 H         1 <0>         0.0815
     71 H36        -1.2421   -7.8371   -8.0244 H         1 <0>         0.0590
     72 H37        -2.1010   -9.0858   -7.0910 H         1 <0>         0.0647
     73 H38        -1.6525   -7.5470   -6.3169 H         1 <0>         0.0559
     74 H39         1.0715  -10.7502   -6.8831 H         1 <0>         0.0560
     75 H40        -0.6969  -10.9365   -6.8044 H         1 <0>         0.0565
     76 H41         0.0643  -10.2811   -8.2738 H         1 <0>         0.0550
     77 H42        -0.1577   -7.9738   -4.6814 H         1 <0>         0.0748
     78 H43        -0.6587   -9.6814   -4.7179 H         1 <0>         0.0485
     79 H44         1.0691   -9.2592   -4.7863 H         1 <0>         0.0744
@<TRIPOS>BOND
     1    1    2 1
     2    1   41 1
     3    1   42 1
     4    1   43 1
     5    2    3 1
     6    2   10 1
     7    2    4 1
     8    4    5 1
     9    4    6 1
    10    4   15 1
    11    6    7 1
    12    6   44 1
    13    6   45 1
    14    7    8 1
    15    7   12 1
    16    7    9 1
    17    9   10 1
    18    9   46 1
    19    9   47 1
    20   10   11 1
    21   10   12 1
    22   12   13 1
    23   12   14 1
    24   13   48 1
    25   13   49 1
    26   13   50 1
    27   14   51 1
    28   14   52 1
    29   14   53 1
    30   15   16 2
    31   15   17 am
    32   17   18 1
    33   17   19 1
    34   18   54 1
    35   18   55 1
    36   18   56 1
    37   19   20 1
    38   19   21 1
    39   19   30 1
    40   21   26 ar
    41   21   22 ar
    42   22   23 ar
    43   22   29 1
    44   23   24 ar
    45   23   57 1
    46   24   25 ar
    47   24   28 1
    48   25   26 ar
    49   25   58 1
    50   26   27 1
    51   27   59 1
    52   28   60 1
    53   29   61 1
    54   30   31 2
    55   30   32 am
    56   32   33 1
    57   32   62 1
    58   33   34 1
    59   33   35 1
    60   33   36 1
    61   34   63 1
    62   34   64 1
    63   34   65 1
    64   35   66 1
    65   35   67 1
    66   35   68 1
    67   36   37 1
    68   36   69 1
    69   36   70 1
    70   37   38 1
    71   37   39 1
    72   37   40 1
    73   38   71 1
    74   38   72 1
    75   38   73 1
    76   39   74 1
    77   39   75 1
    78   39   76 1
    79   40   77 1
    80   40   78 1
    81   40   79 1
@<TRIPOS>MOLECULE
ZINC32565766
   44    45     0     0     0
SMALL
USER_CHARGES

@<TRIPOS>ATOM
      1 C1          0.8613    1.4108   -5.2035 C.ar      1 <0>        -0.0578
      2 C2          2.0435    2.0961   -4.9950 C.ar      1 <0>        -0.1458
      3 C3          3.1390    1.4432   -4.4546 C.ar      1 <0>         0.1636
      4 C4          3.0438    0.0855   -4.1197 C.ar      1 <0>        -0.0788
      5 C5          1.8440   -0.5962   -4.3344 C.ar      1 <0>        -0.0464
      6 C6          0.7622    0.0691   -4.8741 C.ar      1 <0>        -0.1078
      7 Br1        -0.8620   -0.8546   -5.1652 Br        1 <0>        -0.0402
      8 C7          4.2036   -0.6188   -3.5445 C.2       1 <0>         0.1000
      9 N1          5.3171    0.0182   -3.3469 N.2       1 <0>        -0.1999
     10 N2          6.4196   -0.6514   -2.8001 N.am      1 <0>        -0.5867
     11 C8          7.5758    0.0100   -2.5949 C.2       1 <0>         0.5329
     12 O1          7.6619    1.1851   -2.8835 O.2       1 <0>        -0.4975
     13 C9          8.7617   -0.7103   -2.0067 C.3       1 <0>        -0.1202
     14 C10         9.9366    0.2615   -1.8791 C.3       1 <0>        -0.1229
     15 C11        11.1226   -0.4588   -1.2909 C.2       1 <0>         0.5288
     16 O2         11.0365   -1.6339   -1.0022 O.2       1 <0>        -0.5000
     17 N3         12.2788    0.2026   -1.0857 N.am      1 <0>        -0.5936
     18 N4         13.3813   -0.4669   -0.5389 N.2       1 <0>        -0.2148
     19 C12        14.4589    0.1925   -0.2413 C.2       1 <0>         0.1174
     20 C13        14.4426    1.6662   -0.2342 C.ar      1 <0>        -0.1296
     21 C14        13.2484    2.3541   -0.0087 C.ar      1 <0>        -0.0884
     22 C15        13.2402    3.7340   -0.0034 C.ar      1 <0>        -0.0970
     23 C16        14.4119    4.4398   -0.2209 C.ar      1 <0>        -0.0582
     24 C17        15.5999    3.7698   -0.4456 C.ar      1 <0>        -0.1316
     25 C18        15.6268    2.3850   -0.4480 C.ar      1 <0>         0.1577
     26 O3         16.7950    1.7262   -0.6623 O.3       1 <0>        -0.4877
     27 Br2        11.6227    4.6651    0.3013 Br        1 <0>        -0.0308
     28 O4          4.3011    2.1159   -4.2505 O.3       1 <0>        -0.4698
     29 H1          0.0087    1.9256   -5.6213 H         1 <0>         0.1406
     30 H2          2.1131    3.1422   -5.2543 H         1 <0>         0.1435
     31 H3          1.7632   -1.6425   -4.0791 H         1 <0>         0.1429
     32 H4          4.1269   -1.6650   -3.2875 H         1 <0>         0.1246
     33 H5          6.3508   -1.5910   -2.5693 H         1 <0>         0.3881
     34 H6          8.5005   -1.0960   -1.0213 H         1 <0>         0.1097
     35 H7          9.0437   -1.5378   -2.6577 H         1 <0>         0.1100
     36 H8         10.1979    0.6472   -2.8645 H         1 <0>         0.1106
     37 H9          9.6546    1.0890   -1.2280 H         1 <0>         0.1100
     38 H10        12.3476    1.1422   -1.3165 H         1 <0>         0.3938
     39 H11        15.3674   -0.3387    0.0012 H         1 <0>         0.1951
     40 H12        12.3327    1.8071    0.1609 H         1 <0>         0.1455
     41 H13        14.3973    5.5197   -0.2152 H         1 <0>         0.1450
     42 H14        16.5094    4.3270   -0.6147 H         1 <0>         0.1476
     43 H15        16.9392    1.4707   -1.5837 H         1 <0>         0.4012
     44 H16         4.3679    2.5303   -3.3793 H         1 <0>         0.3970
@<TRIPOS>BOND
     1    1    6 ar
     2    1    2 ar
     3    1   29 1
     4    2    3 ar
     5    2   30 1
     6    3    4 ar
     7    3   28 1
     8    4    5 ar
     9    4    8 1
    10    5    6 ar
    11    5   31 1
    12    6    7 1
    13    8    9 2
    14    8   32 1
    15    9   10 1
    16   10   11 am
    17   10   33 1
    18   11   12 2
    19   11   13 1
    20   13   14 1
    21   13   34 1
    22   13   35 1
    23   14   15 1
    24   14   36 1
    25   14   37 1
    26   15   16 2
    27   15   17 am
    28   17   18 1
    29   17   38 1
    30   18   19 2
    31   19   20 1
    32   19   39 1
    33   20   25 ar
    34   20   21 ar
    35   21   22 ar
    36   21   40 1
    37   22   23 ar
    38   22   27 1
    39   23   24 ar
    40   23   41 1
    41   24   25 ar
    42   24   42 1
    43   25   26 1
    44   26   43 1
    45   28   44 1
@<TRIPOS>MOLECULE
ZINC04236607
   77    80     0     0     0
SMALL
USER_CHARGES
[6-hydroxy-1-(hydroxymethyl)-1,4a-dimethyl-5-(2-thienylmethylcarbamoylmethyl)decalin-2-yl] cyclohexylaminoformate
@<TRIPOS>ATOM
      1 C1          2.2593    1.3529   -0.5313 C.3       1 <0>        -0.1688
      2 C2          1.0564    1.6595    0.3631 C.3       1 <0>        -0.0493
      3 C3          0.5493    3.0728    0.0689 C.3       1 <0>        -0.1107
      4 C4          0.1307    3.1690   -1.3996 C.3       1 <0>        -0.1417
      5 C5         -0.9836    2.1587   -1.6795 C.3       1 <0>         0.1242
      6 H1         -1.8406    2.3772   -1.0423 H         1 <0>         0.0882
      7 C6         -0.4765    0.7455   -1.3853 C.3       1 <0>        -0.0464
      8 C7         -0.0579    0.6492    0.0831 C.3       1 <0>        -0.0640
      9 H2          0.3033   -0.3576    0.2927 H         1 <0>         0.0845
     10 C8         -1.2608    0.9559    0.9775 C.3       1 <0>        -0.1222
     11 C9         -0.8422    0.8596    2.4460 C.3       1 <0>        -0.1538
     12 C10         0.2721    1.8699    2.7259 C.3       1 <0>         0.1047
     13 H3         -0.0891    2.8767    2.5163 H         1 <0>         0.0567
     14 C11         1.4750    1.5633    1.8316 C.3       1 <0>        -0.0504
     15 H4          2.2689    2.2830    2.0310 H         1 <0>         0.0923
     16 C12         1.9821    0.1500    2.1257 C.3       1 <0>        -0.1366
     17 C13         2.6193    0.1190    3.4910 C.2       1 <0>         0.5155
     18 O1          2.8230    1.1544    4.0888 O.2       1 <0>        -0.4989
     19 N1          2.9628   -1.0593    4.0478 N.am      1 <0>        -0.7385
     20 C14         3.5822   -1.0895    5.3751 C.3       1 <0>         0.2108
     21 C15         3.8658   -2.5173    5.7647 C.2       1 <0>        -0.1697
     22 C16         4.9792   -3.2577    5.5424 C.2       1 <0>        -0.1356
     23 C17         5.0181   -4.5628    5.9962 C.2       1 <0>        -0.1625
     24 C18         3.9416   -5.0636    6.6502 C.2       1 <0>        -0.1655
     25 S1          2.8257   -3.6701    6.6458 S.3       1 <0>         0.0493
     26 O2          0.6631    1.7800    4.0974 O.3       1 <0>        -0.5365
     27 C19        -1.5909   -0.2648   -1.6653 C.3       1 <0>        -0.1395
     28 C20         0.7264    0.4388   -2.2797 C.3       1 <0>         0.0566
     29 O3          0.2956    0.3345   -3.6382 O.3       1 <0>        -0.5590
     30 O4         -1.3809    2.2501   -3.0731 O.3       1 <0>        -0.3374
     31 C21        -2.3692    3.1144   -3.3716 C.2       1 <0>         0.6424
     32 O5         -2.8856    3.7742   -2.4916 O.2       1 <0>        -0.5772
     33 N2         -2.7857    3.2476   -4.6464 N.am      1 <0>        -0.7075
     34 C22        -3.8610    4.1880   -4.9712 C.3       1 <0>         0.1632
     35 C23        -5.2150    3.5092   -4.7543 C.3       1 <0>        -0.1313
     36 C24        -6.3380    4.4913   -5.0935 C.3       1 <0>        -0.1173
     37 C25        -6.2129    4.9240   -6.5557 C.3       1 <0>        -0.1233
     38 C26        -4.8589    5.6028   -6.7726 C.3       1 <0>        -0.1158
     39 C27        -3.7359    4.6206   -6.4334 C.3       1 <0>        -0.1268
     40 H5          2.2684    2.0409   -1.3766 H         1 <0>         0.0739
     41 H6          3.1784    1.4706    0.0429 H         1 <0>         0.0595
     42 H7          2.1882    0.3286   -0.8973 H         1 <0>         0.0716
     43 H8         -0.3076    3.2912    0.7061 H         1 <0>         0.0736
     44 H9          1.3432    3.7925    0.2683 H         1 <0>         0.0744
     45 H10        -0.2305    4.1758   -1.6091 H         1 <0>         0.0716
     46 H11         0.9877    2.9505   -2.0367 H         1 <0>         0.0773
     47 H12        -1.6221    1.9627    0.7679 H         1 <0>         0.0715
     48 H13        -2.0547    0.2362    0.7781 H         1 <0>         0.0725
     49 H14        -0.4810   -0.1472    2.6556 H         1 <0>         0.0706
     50 H15        -1.6992    1.0781    3.0831 H         1 <0>         0.0660
     51 H16         1.1461   -0.5489    2.0989 H         1 <0>         0.0920
     52 H17         2.7186   -0.1354    1.3745 H         1 <0>         0.0935
     53 H18         2.7999   -1.8874    3.5697 H         1 <0>         0.3981
     54 H19         4.5153   -0.5265    5.3535 H         1 <0>         0.0872
     55 H20         2.9047   -0.6421    6.1024 H         1 <0>         0.0816
     56 H21         5.8236   -2.8342    5.0188 H         1 <0>         0.1348
     57 H22         5.8929   -5.1744    5.8319 H         1 <0>         0.1358
     58 H23         3.7979   -6.0488    7.0688 H         1 <0>         0.1872
     59 H24        -0.0514    1.9627    4.7229 H         1 <0>         0.3639
     60 H25        -2.4479   -0.0463   -1.0281 H         1 <0>         0.0540
     61 H26        -1.8891   -0.1962   -2.7114 H         1 <0>         0.0714
     62 H27        -1.2297   -1.2716   -1.4557 H         1 <0>         0.0555
     63 H28         1.4587    1.2413   -2.1914 H         1 <0>         0.0817
     64 H29         1.1795   -0.5025   -1.9689 H         1 <0>         0.0431
     65 H30         1.0078    0.1408   -4.2629 H         1 <0>         0.3714
     66 H31        -2.3734    2.7208   -5.3489 H         1 <0>         0.4058
     67 H32        -3.7857    5.0631   -4.3257 H         1 <0>         0.0901
     68 H33        -5.2903    2.6342   -5.3998 H         1 <0>         0.0649
     69 H34        -5.3041    3.2010   -3.7126 H         1 <0>         0.0677
     70 H35        -6.2627    5.3664   -4.4480 H         1 <0>         0.0650
     71 H36        -7.3026    4.0078   -4.9389 H         1 <0>         0.0660
     72 H37        -7.0130    5.6237   -6.7973 H         1 <0>         0.0651
     73 H38        -6.2882    4.0489   -7.2012 H         1 <0>         0.0634
     74 H39        -4.7837    6.4778   -6.1271 H         1 <0>         0.0660
     75 H40        -4.7698    5.9110   -7.8143 H         1 <0>         0.0692
     76 H41        -2.7713    5.1042   -6.5880 H         1 <0>         0.0704
     77 H42        -3.8112    3.7456   -7.0790 H         1 <0>         0.0702
@<TRIPOS>BOND
     1    1    2 1
     2    1   40 1
     3    1   41 1
     4    1   42 1
     5    2    8 1
     6    2   14 1
     7    2    3 1
     8    3    4 1
     9    3   43 1
    10    3   44 1
    11    4    5 1
    12    4   45 1
    13    4   46 1
    14    5    6 1
    15    5    7 1
    16    5   30 1
    17    7    8 1
    18    7   27 1
    19    7   28 1
    20    8    9 1
    21    8   10 1
    22   10   11 1
    23   10   47 1
    24   10   48 1
    25   11   12 1
    26   11   49 1
    27   11   50 1
    28   12   13 1
    29   12   14 1
    30   12   26 1
    31   14   15 1
    32   14   16 1
    33   16   17 1
    34   16   51 1
    35   16   52 1
    36   17   18 2
    37   17   19 am
    38   19   20 1
    39   19   53 1
    40   20   21 1
    41   20   54 1
    42   20   55 1
    43   21   25 1
    44   21   22 2
    45   22   23 1
    46   22   56 1
    47   23   24 2
    48   23   57 1
    49   24   25 1
    50   24   58 1
    51   26   59 1
    52   27   60 1
    53   27   61 1
    54   27   62 1
    55   28   29 1
    56   28   63 1
    57   28   64 1
    58   29   65 1
    59   30   31 1
    60   31   32 2
    61   31   33 am
    62   33   34 1
    63   33   66 1
    64   34   39 1
    65   34   35 1
    66   34   67 1
    67   35   36 1
    68   35   68 1
    69   35   69 1
    70   36   37 1
    71   36   70 1
    72   36   71 1
    73   37   38 1
    74   37   72 1
    75   37   73 1
    76   38   39 1
    77   38   74 1
    78   38   75 1
    79   39   76 1
    80   39   77 1
@<TRIPOS>MOLECULE
ZINC13978331
   51    53     0     0     0
SMALL
USER_CHARGES
2-[[2-(2-bromo-4-ethyl-phenoxy)acetyl]carbamothioylamino]-4,5,6,7-tetrahydrobenzothiophene-3-carboxamide
@<TRIPOS>ATOM
      1 C1         -0.7527    1.5927   -1.2315 C.3       1 <0>        -0.1495
      2 C2         -0.0127    1.0858    0.0080 C.3       1 <0>        -0.0825
      3 C3         -0.7181    1.5718    1.2479 C.ar      1 <0>        -0.1082
      4 C4         -0.3588    2.7794    1.8178 C.ar      1 <0>        -0.0619
      5 C5         -1.0075    3.2302    2.9511 C.ar      1 <0>        -0.2010
      6 C6         -2.0126    2.4651    3.5244 C.ar      1 <0>         0.1471
      7 C7         -2.3678    1.2506    2.9541 C.ar      1 <0>        -0.1162
      8 C8         -1.7193    0.8069    1.8167 C.ar      1 <0>        -0.0495
      9 Br1        -3.7369    0.2039    3.7324 Br        1 <0>        -0.0253
     10 O1         -2.6487    2.9041    4.6424 O.3       1 <0>        -0.2749
     11 C9         -2.2310    4.1629    5.1745 C.3       1 <0>         0.0477
     12 C10        -3.0421    4.4828    6.4036 C.2       1 <0>         0.4894
     13 O2         -3.8937    3.7092    6.7862 O.2       1 <0>        -0.3750
     14 N1         -2.8208    5.6288    7.0776 N.am      1 <0>        -0.6343
     15 C11        -3.5462    5.9148    8.1769 C.2       1 <0>         0.4763
     16 S1         -4.7487    4.8226    8.7171 S.2       1 <0>        -0.3720
     17 N2         -3.3249    7.0608    8.8509 N.pl3     1 <0>        -0.5518
     18 C12        -4.0707    7.3549    9.9810 C.2       1 <0>         0.0129
     19 C13        -3.9869    8.4699   10.8036 C.2       1 <0>        -0.1867
     20 C14        -4.8957    8.5388   11.9355 C.2       1 <0>        -0.0834
     21 C15        -5.7297    7.4850   12.0686 C.2       1 <0>        -0.2374
     22 S2         -5.3290    6.4168   10.7149 S.3       1 <0>         0.3233
     23 C16        -6.7621    7.2790   13.1338 C.3       1 <0>        -0.0388
     24 C17        -6.4830    8.2672   14.2755 C.3       1 <0>        -0.1166
     25 C18        -6.2611    9.6602   13.6791 C.3       1 <0>        -0.1175
     26 C19        -4.9308    9.6972   12.9249 C.3       1 <0>        -0.0617
     27 C20        -3.0207    9.5397   10.5381 C.2       1 <0>         0.5788
     28 O3         -3.3322   10.4792    9.8298 O.2       1 <0>        -0.5336
     29 N3         -1.7872    9.4830   11.0784 N.am      1 <0>        -0.8487
     30 H1         -1.7753    1.2154   -1.2238 H         1 <0>         0.0570
     31 H2         -0.7675    2.6825   -1.2255 H         1 <0>         0.0558
     32 H3         -0.2425    1.2411   -2.1283 H         1 <0>         0.0608
     33 H4          0.0021   -0.0041    0.0020 H         1 <0>         0.0753
     34 H5          1.0099    1.4631    0.0003 H         1 <0>         0.0750
     35 H6          0.4268    3.3729    1.3738 H         1 <0>         0.1335
     36 H7         -0.7290    4.1754    3.3933 H         1 <0>         0.1357
     37 H8         -1.9948   -0.1381    1.3725 H         1 <0>         0.1411
     38 H9         -1.1748    4.1130    5.4390 H         1 <0>         0.1040
     39 H10        -2.3819    4.9415    4.4267 H         1 <0>         0.1042
     40 H11        -2.1395    6.2476    6.7715 H         1 <0>         0.4172
     41 H12        -2.6436    7.6797    8.5448 H         1 <0>         0.4133
     42 H13        -7.7550    7.4631   12.7233 H         1 <0>         0.0812
     43 H14        -6.7037    6.2574   13.5091 H         1 <0>         0.0797
     44 H15        -7.3357    8.2919   14.9540 H         1 <0>         0.0697
     45 H16        -5.5920    7.9544   14.8198 H         1 <0>         0.0658
     46 H17        -7.0739    9.8933   12.9912 H         1 <0>         0.0661
     47 H18        -6.2422   10.3985   14.4807 H         1 <0>         0.0666
     48 H19        -4.8422   10.6406   12.3862 H         1 <0>         0.0700
     49 H20        -4.1070    9.6015   13.6322 H         1 <0>         0.0718
     50 H21        -1.5389    8.7343   11.6429 H         1 <0>         0.4043
     51 H22        -1.1478   10.1909   10.9027 H         1 <0>         0.4028
@<TRIPOS>BOND
     1    1    2 1
     2    1   30 1
     3    1   31 1
     4    1   32 1
     5    2    3 1
     6    2   33 1
     7    2   34 1
     8    3    8 ar
     9    3    4 ar
    10    4    5 ar
    11    4   35 1
    12    5    6 ar
    13    5   36 1
    14    6    7 ar
    15    6   10 1
    16    7    8 ar
    17    7    9 1
    18    8   37 1
    19   10   11 1
    20   11   12 1
    21   11   38 1
    22   11   39 1
    23   12   13 2
    24   12   14 am
    25   14   15 1
    26   14   40 1
    27   15   16 2
    28   15   17 1
    29   17   18 1
    30   17   41 1
    31   18   22 1
    32   18   19 2
    33   19   20 1
    34   19   27 1
    35   20   26 1
    36   20   21 2
    37   21   22 1
    38   21   23 1
    39   23   24 1
    40   23   42 1
    41   23   43 1
    42   24   25 1
    43   24   44 1
    44   24   45 1
    45   25   26 1
    46   25   46 1
    47   25   47 1
    48   26   48 1
    49   26   49 1
    50   27   28 2
    51   27   29 am
    52   29   50 1
    53   29   51 1
@<TRIPOS>MOLECULE
ZINC32125053
   48    50     0     0     0
SMALL
USER_CHARGES
2-[(3,5-dichloro-4-methoxy-benzoyl)carbamothioylamino]-5,6,7,8-tetrahydro-4H-cyclohepta[b]thiophene-3-carboxamide
@<TRIPOS>ATOM
      1 C1         -3.0002    4.1223   -1.2192 C.3       1 <0>         0.0299
      2 O1         -2.4207    3.8000    0.0466 O.3       1 <0>        -0.3174
      3 C2         -1.2346    3.1399    0.0313 C.ar      1 <0>         0.1503
      4 C3         -1.2148    1.7495    0.0173 C.ar      1 <0>        -0.0536
      5 C4         -0.0126    1.0758    0.0080 C.ar      1 <0>        -0.0261
      6 C5          1.1877    1.7919    0.0003 C.ar      1 <0>        -0.1183
      7 C6          1.1636    3.1894    0.0081 C.ar      1 <0>        -0.0640
      8 C7         -0.0425    3.8559    0.0233 C.ar      1 <0>        -0.0541
      9 Cl1        -0.0737    5.5916    0.0329 Cl        1 <0>        -0.0275
     10 C8          2.4767    1.0746   -0.0164 C.2       1 <0>         0.5481
     11 O2          2.4958   -0.1408   -0.0235 O.2       1 <0>        -0.3985
     12 N1          3.6330    1.7669   -0.0237 N.am      1 <0>        -0.6484
     13 C9          4.8107    1.1116   -0.0389 C.2       1 <0>         0.4873
     14 S1          4.8376   -0.6002   -0.0490 S.2       1 <0>        -0.3915
     15 N2          5.9670    1.8038   -0.0463 N.pl3     1 <0>        -0.5646
     16 C10         7.1777    1.1301   -0.0619 C.2       1 <0>         0.0206
     17 C11         8.4587    1.6599   -0.0771 C.2       1 <0>        -0.1889
     18 C12         9.5778    0.7271   -0.0836 C.2       1 <0>        -0.0793
     19 C13         9.2309   -0.5777   -0.0926 C.2       1 <0>        -0.2356
     20 S2          7.4588   -0.5788   -0.0751 S.3       1 <0>         0.3124
     21 C14        10.1403   -1.7661   -0.1261 C.3       1 <0>        -0.0412
     22 C15        11.2289   -1.6016    0.9430 C.3       1 <0>        -0.1165
     23 C16        12.4097   -0.8643    0.3191 C.3       1 <0>        -0.1206
     24 C17        11.9143    0.1302   -0.7288 C.3       1 <0>        -0.1237
     25 C18        11.0295    1.1895   -0.0808 C.3       1 <0>        -0.0587
     26 C19         8.6797    3.1089   -0.0816 C.2       1 <0>         0.5790
     27 O3          8.7837    3.7120    0.9705 O.2       1 <0>        -0.5434
     28 N3          8.7677    3.7735   -1.2509 N.am      1 <0>        -0.8722
     29 Cl2        -2.7062    0.8611    0.0189 Cl        1 <0>        -0.0226
     30 H1         -3.9516    4.6518   -1.0627 H         1 <0>         0.1090
     31 H2         -3.1843    3.1968   -1.7845 H         1 <0>         0.0560
     32 H3         -2.3108    4.7664   -1.7847 H         1 <0>         0.0549
     33 H4          0.0021   -0.0041    0.0020 H         1 <0>         0.1647
     34 H5          2.0890    3.7462    0.0019 H         1 <0>         0.1441
     35 H6          3.6156    2.8667   -0.0173 H         1 <0>         0.4383
     36 H7          5.9497    2.9036   -0.0400 H         1 <0>         0.4375
     37 H8          9.5596   -2.6780    0.0768 H         1 <0>         0.0716
     38 H9         10.6076   -1.8423   -1.1190 H         1 <0>         0.0856
     39 H10        10.8282   -1.0228    1.7883 H         1 <0>         0.0666
     40 H11        11.5487   -2.5930    1.2963 H         1 <0>         0.0680
     41 H12        12.9574   -0.3199    1.1025 H         1 <0>         0.0620
     42 H13        13.0823   -1.5898   -0.1618 H         1 <0>         0.0633
     43 H14        12.7759    0.6240   -1.2019 H         1 <0>         0.0625
     44 H15        11.3318   -0.4034   -1.4942 H         1 <0>         0.0747
     45 H16        11.1161    2.1291   -0.6461 H         1 <0>         0.0628
     46 H17        11.3602    1.3533    0.9555 H         1 <0>         0.0734
     47 H18         8.9336    4.8609   -1.2543 H         1 <0>         0.4215
     48 H19         8.6737    3.2285   -2.2017 H         1 <0>         0.4228
@<TRIPOS>BOND
     1    1    2 1
     2    1   30 1
     3    1   31 1
     4    1   32 1
     5    2    3 1
     6    3    8 ar
     7    3    4 ar
     8    4    5 ar
     9    4   29 1
    10    5    6 ar
    11    5   33 1
    12    6    7 ar
    13    6   10 1
    14    7    8 ar
    15    7   34 1
    16    8    9 1
    17   10   11 2
    18   10   12 am
    19   12   13 1
    20   12   35 1
    21   13   14 2
    22   13   15 1
    23   15   16 1
    24   15   36 1
    25   16   20 1
    26   16   17 2
    27   17   18 1
    28   17   26 1
    29   18   25 1
    30   18   19 2
    31   19   20 1
    32   19   21 1
    33   21   22 1
    34   21   37 1
    35   21   38 1
    36   22   23 1
    37   22   39 1
    38   22   40 1
    39   23   24 1
    40   23   41 1
    41   23   42 1
    42   24   25 1
    43   24   43 1
    44   24   44 1
    45   25   45 1
    46   25   46 1
    47   26   27 2
    48   26   28 am
    49   28   47 1
    50   28   48 1
@<TRIPOS>MOLECULE
ZINC36559603
   71    73     0     0     0
SMALL
USER_CHARGES

@<TRIPOS>ATOM
      1 C1          2.9440    1.1257   -2.1117 C.3       1 <0>        -0.1431
      2 C2          2.7896   -0.3872   -1.9433 C.3       1 <0>        -0.1401
      3 C3          1.4393   -0.6927   -1.2920 C.3       1 <0>         0.1008
      4 N1          1.2899   -2.1415   -1.1344 N.am      1 <0>        -0.5809
      5 C4          0.5173   -2.9091   -2.1143 C.3       1 <0>         0.1855
      6 H1         -0.4260   -3.2234   -1.6676 H         1 <0>         0.1014
      7 C5          1.3039   -4.1241   -2.5337 C.ar      1 <0>        -0.1338
      8 C6          2.6436   -4.0007   -2.8700 C.ar      1 <0>         0.1607
      9 C7          3.3675   -5.1187   -3.2560 C.ar      1 <0>        -0.1826
     10 C8          2.7518   -6.3603   -3.3053 C.ar      1 <0>         0.1448
     11 C9          1.4123   -6.4839   -2.9682 C.ar      1 <0>        -0.1804
     12 C10         0.6896   -5.3666   -2.5780 C.ar      1 <0>         0.1600
     13 O1         -0.6218   -5.4885   -2.2431 O.3       1 <0>        -0.4873
     14 O2          3.4609   -7.4558   -3.6844 O.3       1 <0>        -0.4954
     15 O3          3.2470   -2.7840   -2.8217 O.3       1 <0>        -0.4696
     16 C11         0.2401   -2.0491   -3.3204 C.2       1 <0>         0.5159
     17 O4          1.0231   -1.1790   -3.6376 O.2       1 <0>        -0.4906
     18 N2         -0.8780   -2.2470   -4.0464 N.am      1 <0>        -0.7206
     19 C12        -1.1475   -1.4110   -5.2189 C.3       1 <0>         0.1718
     20 C13        -0.0141   -1.5749   -6.2335 C.3       1 <0>        -0.1636
     21 C14        -2.4700   -1.8397   -5.8579 C.3       1 <0>        -0.1571
     22 C15        -1.2400    0.0547   -4.7898 C.3       1 <0>        -0.1638
     23 C16         1.8631   -2.7682   -0.0879 C.2       1 <0>         0.5568
     24 O5          1.8454   -3.9827   -0.0222 O.2       1 <0>        -0.5158
     25 C17         2.5106   -1.9831    0.9754 C.2       1 <0>        -0.1253
     26 C18         3.7507   -2.3266    1.4151 C.2       1 <0>        -0.0257
     27 C19         4.3390   -1.6336    2.5694 C.ar      1 <0>        -0.0739
     28 C20         3.5193   -1.1722    3.6058 C.ar      1 <0>        -0.0901
     29 C21         4.0794   -0.5234    4.6855 C.ar      1 <0>        -0.1225
     30 C22         5.4483   -0.3278    4.7464 C.ar      1 <0>        -0.1072
     31 C23         6.2661   -0.7806    3.7254 C.ar      1 <0>        -0.1244
     32 C24         5.7228   -1.4364    2.6413 C.ar      1 <0>        -0.0977
     33 C25         1.8115   -0.8191    1.5665 C.ar      1 <0>        -0.0335
     34 C26         0.5764   -0.9878    2.1926 C.ar      1 <0>        -0.1162
     35 C27        -0.0700    0.1007    2.7413 C.ar      1 <0>        -0.1140
     36 C28         0.5044    1.3574    2.6716 C.ar      1 <0>        -0.1155
     37 C29         1.7290    1.5313    2.0516 C.ar      1 <0>        -0.1139
     38 C30         2.3881    0.4496    1.5045 C.ar      1 <0>        -0.0952
     39 H2          2.1982    1.4906   -2.8179 H         1 <0>         0.0541
     40 H3          2.8019    1.6149   -1.1481 H         1 <0>         0.0456
     41 H4          3.9418    1.3493   -2.4891 H         1 <0>         0.0516
     42 H5          2.8390   -0.8684   -2.9201 H         1 <0>         0.1185
     43 H6          3.5923   -0.7661   -1.3106 H         1 <0>         0.0406
     44 H7          1.3911   -0.2139   -0.3140 H         1 <0>         0.0847
     45 H8          0.6368   -0.3112   -1.9233 H         1 <0>         0.0849
     46 H9          4.4107   -5.0225   -3.5186 H         1 <0>         0.1367
     47 H10         0.9327   -7.4508   -3.0070 H         1 <0>         0.1385
     48 H11        -1.2295   -5.3809   -2.9876 H         1 <0>         0.3882
     49 H12         3.8917   -7.9182   -2.9525 H         1 <0>         0.3959
     50 H13         3.7056   -2.6051   -1.9893 H         1 <0>         0.3812
     51 H14        -1.5043   -2.9429   -3.7927 H         1 <0>         0.3960
     52 H15         0.0517   -2.6190   -6.5392 H         1 <0>         0.0525
     53 H16        -0.2146   -0.9529   -7.1059 H         1 <0>         0.0629
     54 H17         0.9280   -1.2694   -5.7783 H         1 <0>         0.0804
     55 H18        -3.2774   -1.7230   -5.1351 H         1 <0>         0.0627
     56 H19        -2.6705   -1.2177   -6.7302 H         1 <0>         0.0753
     57 H20        -2.4041   -2.8839   -6.1636 H         1 <0>         0.0621
     58 H21        -0.2979    0.3601   -4.3346 H         1 <0>         0.0790
     59 H22        -1.4405    0.6767   -5.6622 H         1 <0>         0.0639
     60 H23        -2.0475    0.1714   -4.0670 H         1 <0>         0.0535
     61 H24         4.3032   -3.1088    0.9158 H         1 <0>         0.1326
     62 H25         2.4509   -1.3237    3.5596 H         1 <0>         0.1306
     63 H26         3.4482   -0.1664    5.4859 H         1 <0>         0.1224
     64 H27         5.8808    0.1813    5.5950 H         1 <0>         0.1223
     65 H28         7.3332   -0.6236    3.7804 H         1 <0>         0.1244
     66 H29         6.3627   -1.7933    1.8479 H         1 <0>         0.1248
     67 H30         0.1269   -1.9682    2.2473 H         1 <0>         0.1215
     68 H31        -1.0264   -0.0285    3.2260 H         1 <0>         0.1239
     69 H32        -0.0054    2.2064    3.1026 H         1 <0>         0.1226
     70 H33         2.1721    2.5148    2.0000 H         1 <0>         0.1241
     71 H34         3.3462    0.5858    1.0250 H         1 <0>         0.1238
@<TRIPOS>BOND
     1    1    2 1
     2    1   39 1
     3    1   40 1
     4    1   41 1
     5    2    3 1
     6    2   42 1
     7    2   43 1
     8    3    4 1
     9    3   44 1
    10    3   45 1
    11    4    5 1
    12    4   23 am
    13    5    6 1
    14    5    7 1
    15    5   16 1
    16    7   12 ar
    17    7    8 ar
    18    8    9 ar
    19    8   15 1
    20    9   10 ar
    21    9   46 1
    22   10   11 ar
    23   10   14 1
    24   11   12 ar
    25   11   47 1
    26   12   13 1
    27   13   48 1
    28   14   49 1
    29   15   50 1
    30   16   17 2
    31   16   18 am
    32   18   19 1
    33   18   51 1
    34   19   20 1
    35   19   21 1
    36   19   22 1
    37   20   52 1
    38   20   53 1
    39   20   54 1
    40   21   55 1
    41   21   56 1
    42   21   57 1
    43   22   58 1
    44   22   59 1
    45   22   60 1
    46   23   24 2
    47   23   25 1
    48   25   26 2
    49   25   33 1
    50   26   27 1
    51   26   61 1
    52   27   32 ar
    53   27   28 ar
    54   28   29 ar
    55   28   62 1
    56   29   30 ar
    57   29   63 1
    58   30   31 ar
    59   30   64 1
    60   31   32 ar
    61   31   65 1
    62   32   66 1
    63   33   38 ar
    64   33   34 ar
    65   34   35 ar
    66   34   67 1
    67   35   36 ar
    68   35   68 1
    69   36   37 ar
    70   36   69 1
    71   37   38 ar
    72   37   70 1
    73   38   71 1
@<TRIPOS>MOLECULE
ZINC39443732
   66    70     0     0     0
SMALL
USER_CHARGES

@<TRIPOS>ATOM
      1 C1          0.7681    1.3027   -0.8264 C.3       1 <0>        -0.1144
      2 C2          0.6149   -0.1904   -0.6910 C.ar      1 <0>        -0.1039
      3 C3          0.3379   -0.9595   -1.8063 C.ar      1 <0>        -0.0898
      4 C4          0.1970   -2.3280   -1.6856 C.ar      1 <0>        -0.1557
      5 C5          0.3342   -2.9318   -0.4423 C.ar      1 <0>         0.1596
      6 C6          0.6129   -2.1565    0.6758 C.ar      1 <0>        -0.1339
      7 C7          0.7574   -0.7890    0.5475 C.ar      1 <0>        -0.0869
      8 N1          0.1916   -4.3173   -0.3165 N.am      1 <0>        -0.3534
      9 C8          0.2937   -5.0274    0.8255 C.2       1 <0>         0.5466
     10 O1          0.5267   -4.5781    1.9333 O.2       1 <0>        -0.5229
     11 C9          0.0808   -6.3882    0.5041 C.2       1 <0>        -0.2909
     12 C10        -0.1453   -6.4746   -0.8225 C.2       1 <0>         0.1973
     13 N2         -0.0891   -5.2171   -1.3533 N.pl3     1 <0>        -0.4957
     14 H1         -0.2186   -4.9872   -2.2867 H         1 <0>         0.4428
     15 C11        -0.4197   -7.7429   -1.5887 C.3       1 <0>        -0.1030
     16 C12         0.1028   -7.5407    1.4749 C.3       1 <0>         0.1380
     17 H2          0.0305   -8.4796    0.9259 H         1 <0>         0.0963
     18 C13        -1.0629   -7.4217    2.4224 C.ar      1 <0>        -0.0965
     19 C14        -1.2074   -6.2902    3.2022 C.ar      1 <0>        -0.0598
     20 C15        -2.2764   -6.1807    4.0720 C.ar      1 <0>        -0.1416
     21 C16        -3.2037   -7.2024    4.1636 C.ar      1 <0>        -0.1074
     22 C17        -3.0640   -8.3353    3.3860 C.ar      1 <0>        -0.1612
     23 C18        -1.9949   -8.4454    2.5083 C.ar      1 <0>         0.1028
     24 O2         -1.8583   -9.5566    1.7380 O.3       1 <0>        -0.4998
     25 C19         1.3907   -7.5140    2.2570 C.2       1 <0>        -0.2483
     26 C20         2.3741   -8.3839    2.1664 C.2       1 <0>         0.1590
     27 N3          3.4152   -8.0754    3.0205 N.pl3     1 <0>        -0.5448
     28 N4          3.1214   -6.9121    3.7458 N.pl3     1 <0>        -0.4517
     29 C21         1.7914   -6.4791    3.2846 C.3       1 <0>         0.3678
     30 H3          1.8478   -5.4912    2.8275 H         1 <0>         0.1119
     31 O3          0.8665   -6.4738    4.3739 O.3       1 <0>        -0.5492
     32 C22         3.9256   -6.2898    4.7034 C.ar      1 <0>         0.2392
     33 C23         3.4837   -5.1375    5.3411 C.ar      1 <0>        -0.1894
     34 C24         4.2812   -4.5250    6.2877 C.ar      1 <0>        -0.0619
     35 C25         5.5186   -5.0572    6.6006 C.ar      1 <0>        -0.1466
     36 C26         5.9618   -6.2038    5.9673 C.ar      1 <0>        -0.0657
     37 C27         5.1667   -6.8249    5.0242 C.ar      1 <0>        -0.1958
     38 C28         6.3863   -4.3858    7.6338 C.3       1 <0>        -0.1066
     39 C29         2.3652   -9.5743    1.2423 C.3       1 <0>        -0.1023
     40 H4          1.8110    1.5438   -1.0323 H         1 <0>         0.0714
     41 H5          0.1442    1.6590   -1.6461 H         1 <0>         0.0669
     42 H6          0.4599    1.7852    0.1011 H         1 <0>         0.0683
     43 H7          0.2314   -0.4894   -2.7728 H         1 <0>         0.1294
     44 H8         -0.0201   -2.9281   -2.5569 H         1 <0>         0.1191
     45 H9          0.7198   -2.6228    1.6441 H         1 <0>         0.1586
     46 H10         0.9781   -0.1860    1.4158 H         1 <0>         0.1324
     47 H11        -1.4934   -7.9298   -1.6094 H         1 <0>         0.0969
     48 H12        -0.0493   -7.6387   -2.6085 H         1 <0>         0.0798
     49 H13         0.0850   -8.5777   -1.1023 H         1 <0>         0.0994
     50 H14        -0.4845   -5.4909    3.1324 H         1 <0>         0.1640
     51 H15        -2.3872   -5.2958    4.6811 H         1 <0>         0.1144
     52 H16        -4.0378   -7.1146    4.8442 H         1 <0>         0.1166
     53 H17        -3.7885   -9.1330    3.4579 H         1 <0>         0.1199
     54 H18        -1.3401  -10.2606    2.1515 H         1 <0>         0.3835
     55 H19         4.2327   -8.5905    3.1066 H         1 <0>         0.4229
     56 H20         1.0746   -5.8285    5.0634 H         1 <0>         0.3640
     57 H21         2.5177   -4.7210    5.0967 H         1 <0>         0.1205
     58 H22         3.9382   -3.6292    6.7840 H         1 <0>         0.1253
     59 H23         6.9289   -6.6166    6.2137 H         1 <0>         0.1214
     60 H24         5.5114   -7.7231    4.5334 H         1 <0>         0.1127
     61 H25         6.1631   -4.7968    8.6183 H         1 <0>         0.0646
     62 H26         7.4356   -4.5608    7.3962 H         1 <0>         0.0616
     63 H27         6.1877   -3.3140    7.6340 H         1 <0>         0.0627
     64 H28         2.7983   -9.2924    0.2825 H         1 <0>         0.0818
     65 H29         2.9517  -10.3806    1.6828 H         1 <0>         0.0717
     66 H30         1.3393   -9.9108    1.0931 H         1 <0>         0.0882
@<TRIPOS>BOND
     1    1    2 1
     2    1   40 1
     3    1   41 1
     4    1   42 1
     5    2    7 ar
     6    2    3 ar
     7    3    4 ar
     8    3   43 1
     9    4    5 ar
    10    4   44 1
    11    5    6 ar
    12    5    8 1
    13    6    7 ar
    14    6   45 1
    15    7   46 1
    16    8   13 1
    17    8    9 am
    18    9   10 2
    19    9   11 1
    20   11   12 2
    21   11   16 1
    22   12   13 1
    23   12   15 1
    24   13   14 1
    25   15   47 1
    26   15   48 1
    27   15   49 1
    28   16   17 1
    29   16   18 1
    30   16   25 1
    31   18   23 ar
    32   18   19 ar
    33   19   20 ar
    34   19   50 1
    35   20   21 ar
    36   20   51 1
    37   21   22 ar
    38   21   52 1
    39   22   23 ar
    40   22   53 1
    41   23   24 1
    42   24   54 1
    43   25   29 1
    44   25   26 2
    45   26   27 1
    46   26   39 1
    47   27   28 1
    48   27   55 1
    49   28   29 1
    50   28   32 1
    51   29   30 1
    52   29   31 1
    53   31   56 1
    54   32   37 ar
    55   32   33 ar
    56   33   34 ar
    57   33   57 1
    58   34   35 ar
    59   34   58 1
    60   35   36 ar
    61   35   38 1
    62   36   37 ar
    63   36   59 1
    64   37   60 1
    65   38   61 1
    66   38   62 1
    67   38   63 1
    68   39   64 1
    69   39   65 1
    70   39   66 1
@<TRIPOS>MOLECULE
ZINC66072284
   67    69     0     0     0
SMALL
USER_CHARGES

@<TRIPOS>ATOM
      1 C1          4.4786   -0.6580   -3.6323 C.3       1 <0>        -0.1546
      2 C2          4.0658    0.3376   -2.5463 C.3       1 <0>        -0.1325
      3 C3          2.5726    0.1811   -2.2518 C.3       1 <0>         0.1397
      4 H1          2.3599   -0.8563   -1.9939 H         1 <0>         0.0905
      5 C4          2.1859    1.0873   -1.0812 C.3       1 <0>        -0.1651
      6 N1          1.7990    0.5580   -3.4374 N.am      1 <0>        -0.7210
      7 C5          0.5630    0.0540   -3.6238 C.2       1 <0>         0.5610
      8 O1          0.0900   -0.7135   -2.8080 O.2       1 <0>        -0.5358
      9 C6         -0.2165    0.4337   -4.8183 C.ar      1 <0>        -0.1503
     10 C7          0.3279    1.3112   -5.7599 C.ar      1 <0>        -0.0644
     11 C8         -0.4016    1.6629   -6.8731 C.ar      1 <0>        -0.1286
     12 C9         -1.6797    1.1462   -7.0611 C.ar      1 <0>         0.1708
     13 C10        -2.2246    0.2723   -6.1256 C.ar      1 <0>        -0.1505
     14 C11        -1.4982   -0.0881   -5.0130 C.ar      1 <0>        -0.0364
     15 N2         -2.4162    1.5052   -8.1893 N.am      1 <0>        -0.6687
     16 C12        -1.7874    1.7398   -9.3581 C.2       1 <0>         0.5118
     17 O2         -0.5940    1.5463   -9.4541 O.2       1 <0>        -0.5082
     18 C13        -2.5671    2.2426  -10.5456 C.3       1 <0>         0.1060
     19 N3         -1.6630    2.4171  -11.6851 N.pl3     1 <0>        -0.7344
     20 C14        -2.1601    2.8778  -12.9075 C.ar      1 <0>         0.2148
     21 C15        -3.5117    3.1757  -13.0402 C.ar      1 <0>        -0.1624
     22 C16        -4.0089    3.6310  -14.2461 C.ar      1 <0>        -0.0688
     23 C17        -3.1659    3.7937  -15.3288 C.ar      1 <0>        -0.0399
     24 C18        -1.8063    3.4975  -15.2053 C.ar      1 <0>        -0.0794
     25 C19        -1.3046    3.0427  -13.9852 C.ar      1 <0>        -0.1487
     26 C20        -0.9017    3.6703  -16.3611 C.2       1 <0>         0.5531
     27 O3         -1.3403    4.0709  -17.4217 O.2       1 <0>        -0.5075
     28 N4          0.4096    3.3838  -16.2393 N.am      1 <0>        -0.7236
     29 C21         1.3064    3.5551  -17.3850 C.3       1 <0>         0.1469
     30 C22         1.2634    2.2997  -18.2585 C.3       1 <0>        -0.1292
     31 C23         2.2000    2.4787  -19.4550 C.3       1 <0>        -0.1176
     32 C24         3.6285    2.7037  -18.9554 C.3       1 <0>        -0.1226
     33 C25         3.6714    3.9591  -18.0819 C.3       1 <0>        -0.1161
     34 C26         2.7349    3.7801  -16.8853 C.3       1 <0>        -0.1268
     35 Cl1        -3.7962    4.3655  -16.8419 Cl        1 <0>        -0.0364
     36 H2          4.2805   -1.6732   -3.2887 H         1 <0>         0.0565
     37 H3          3.9070   -0.4634   -4.5397 H         1 <0>         0.0543
     38 H4          5.5424   -0.5465   -3.8420 H         1 <0>         0.0579
     39 H5          4.6375    0.1431   -1.6388 H         1 <0>         0.0807
     40 H6          4.2639    1.3529   -2.8899 H         1 <0>         0.0681
     41 H7          2.3986    2.1247   -1.3392 H         1 <0>         0.0570
     42 H8          1.1221    0.9758   -0.8715 H         1 <0>         0.0616
     43 H9          2.7615    0.8068   -0.1991 H         1 <0>         0.0674
     44 H10         2.1763    1.1703   -4.0883 H         1 <0>         0.3984
     45 H11         1.3196    1.7132   -5.6142 H         1 <0>         0.1294
     46 H12         0.0185    2.3410   -7.6012 H         1 <0>         0.1403
     47 H13        -3.2170   -0.1270   -6.2745 H         1 <0>         0.1359
     48 H14        -1.9201   -0.7699   -4.2895 H         1 <0>         0.1427
     49 H15        -3.3812    1.5862   -8.1330 H         1 <0>         0.4175
     50 H16        -3.3418    1.5206  -10.8037 H         1 <0>         0.0989
     51 H17        -3.0290    3.1985  -10.2987 H         1 <0>         0.1002
     52 H18        -0.7193    2.2130  -11.5912 H         1 <0>         0.4141
     53 H19        -4.1755    3.0505  -12.1975 H         1 <0>         0.1346
     54 H20        -5.0599    3.8600  -14.3430 H         1 <0>         0.1411
     55 H21        -0.2536    2.8162  -13.8822 H         1 <0>         0.1324
     56 H22         0.7596    3.0641  -15.3930 H         1 <0>         0.3972
     57 H23         0.9865    4.4167  -17.9711 H         1 <0>         0.0905
     58 H24         1.5833    1.4382  -17.6724 H         1 <0>         0.0628
     59 H25         0.2457    2.1394  -18.6144 H         1 <0>         0.0686
     60 H26         2.1693    1.5843  -20.0773 H         1 <0>         0.0652
     61 H27         1.8801    3.3402  -20.0411 H         1 <0>         0.0650
     62 H28         3.9483    1.8421  -18.3693 H         1 <0>         0.0624
     63 H29         4.2957    2.8312  -19.8078 H         1 <0>         0.0644
     64 H30         4.6891    4.1194  -17.7259 H         1 <0>         0.0675
     65 H31         3.3516    4.8206  -18.6680 H         1 <0>         0.0659
     66 H32         2.7655    4.6745  -16.2630 H         1 <0>         0.0689
     67 H33         3.0547    2.9186  -16.2992 H         1 <0>         0.0676
@<TRIPOS>BOND
     1    1    2 1
     2    1   36 1
     3    1   37 1
     4    1   38 1
     5    2    3 1
     6    2   39 1
     7    2   40 1
     8    3    4 1
     9    3    5 1
    10    3    6 1
    11    5   41 1
    12    5   42 1
    13    5   43 1
    14    6    7 am
    15    6   44 1
    16    7    8 2
    17    7    9 1
    18    9   14 ar
    19    9   10 ar
    20   10   11 ar
    21   10   45 1
    22   11   12 ar
    23   11   46 1
    24   12   13 ar
    25   12   15 1
    26   13   14 ar
    27   13   47 1
    28   14   48 1
    29   15   16 am
    30   15   49 1
    31   16   17 2
    32   16   18 1
    33   18   19 1
    34   18   50 1
    35   18   51 1
    36   19   20 1
    37   19   52 1
    38   20   25 ar
    39   20   21 ar
    40   21   22 ar
    41   21   53 1
    42   22   23 ar
    43   22   54 1
    44   23   24 ar
    45   23   35 1
    46   24   25 ar
    47   24   26 1
    48   25   55 1
    49   26   27 2
    50   26   28 am
    51   28   29 1
    52   28   56 1
    53   29   34 1
    54   29   30 1
    55   29   57 1
    56   30   31 1
    57   30   58 1
    58   30   59 1
    59   31   32 1
    60   31   60 1
    61   31   61 1
    62   32   33 1
    63   32   62 1
    64   32   63 1
    65   33   34 1
    66   33   64 1
    67   33   65 1
    68   34   66 1
    69   34   67 1
@<TRIPOS>MOLECULE
ZINC16577202
   65    67     0     0     0
SMALL
USER_CHARGES
(1R,3S)-N-[(2-methoxyphenyl)carbamothioyl]-3-[2-[(2-methoxyphenyl)carbamothioylamino]-2-oxo-ethyl]-2,2-dimethyl-cyclobutane-1-carboxamide
@<TRIPOS>ATOM
      1 C1         -4.0614    1.2933   10.0380 C.3       1 <0>        -0.1324
      2 C2         -4.7677    2.2774    9.1035 C.3       1 <0>        -0.0527
      3 C3         -6.2892    2.0685    9.0249 C.3       1 <0>        -0.0860
      4 H1         -6.8371    2.9598    8.7191 H         1 <0>         0.1221
      5 C4         -6.0159    1.0877    7.8725 C.3       1 <0>        -0.1119
      6 C5         -4.7141    1.8671    7.6224 C.3       1 <0>        -0.1307
      7 H2         -3.8647    1.2304    7.3748 H         1 <0>         0.0973
      8 C6         -4.8762    3.0232    6.6694 C.2       1 <0>         0.5043
      9 O1         -5.6529    3.9176    6.9279 O.2       1 <0>        -0.3902
     10 N1         -4.1577    3.0630    5.5298 N.am      1 <0>        -0.6409
     11 C7         -4.3027    4.0970    4.6776 C.2       1 <0>         0.5077
     12 S1         -5.3994    5.3599    5.0426 S.2       1 <0>        -0.4888
     13 N2         -3.5842    4.1368    3.5379 N.pl3     1 <0>        -0.6067
     14 C8         -3.6762    5.2484    2.6904 C.ar      1 <0>         0.0858
     15 C9         -3.7974    6.5227    3.2252 C.ar      1 <0>        -0.0388
     16 C10        -3.8875    7.6178    2.3871 C.ar      1 <0>        -0.1476
     17 C11        -3.8577    7.4471    1.0152 C.ar      1 <0>        -0.0704
     18 C12        -3.7308    6.1808    0.4750 C.ar      1 <0>        -0.2064
     19 C13        -3.6457    5.0773    1.3082 C.ar      1 <0>         0.1243
     20 O2         -3.5271    3.8306    0.7782 O.3       1 <0>        -0.3235
     21 C14        -3.5026    3.7312   -0.6471 C.3       1 <0>         0.0287
     22 C15        -6.8815    1.4029   10.2688 C.3       1 <0>        -0.1264
     23 C16        -8.3761    1.2886   10.1138 C.2       1 <0>         0.4816
     24 O3         -8.9145    1.6990    9.1079 O.2       1 <0>        -0.3951
     25 N3         -9.1144    0.7302   11.0934 N.am      1 <0>        -0.6448
     26 C17       -10.4512    0.6280   10.9548 C.2       1 <0>         0.5071
     27 S2        -11.2113    1.2074    9.5344 S.2       1 <0>        -0.4907
     28 N4        -11.1895    0.0696   11.9344 N.pl3     1 <0>        -0.6060
     29 C18       -12.5607   -0.1439   11.7429 C.ar      1 <0>         0.0863
     30 C19       -13.0447   -0.4704   10.4844 C.ar      1 <0>        -0.0438
     31 C20       -14.3972   -0.6857   10.2992 C.ar      1 <0>        -0.1469
     32 C21       -15.2720   -0.5658   11.3633 C.ar      1 <0>        -0.0718
     33 C22       -14.7977   -0.2355   12.6192 C.ar      1 <0>        -0.2058
     34 C23       -13.4426   -0.0232   12.8144 C.ar      1 <0>         0.1224
     35 O4        -12.9746    0.3017   14.0492 O.3       1 <0>        -0.3241
     36 C24       -13.9367    0.4079   15.1004 C.3       1 <0>         0.0289
     37 C25        -4.3606    3.7312    9.3518 C.3       1 <0>        -0.1582
     38 H3         -2.9858    1.4662   10.0021 H         1 <0>         0.0621
     39 H4         -4.4191    1.4396   11.0572 H         1 <0>         0.0669
     40 H5         -4.2761    0.2729    9.7206 H         1 <0>         0.0610
     41 H6         -6.7337    1.1630    7.0556 H         1 <0>         0.0805
     42 H7         -5.8540    0.0614    8.2017 H         1 <0>         0.0935
     43 H8         -3.5363    2.3475    5.3230 H         1 <0>         0.4098
     44 H9         -3.0035    3.3957    3.3046 H         1 <0>         0.4094
     45 H10        -3.8217    6.6589    4.2963 H         1 <0>         0.1575
     46 H11        -3.9819    8.6094    2.8046 H         1 <0>         0.1316
     47 H12        -3.9287    8.3058    0.3640 H         1 <0>         0.1286
     48 H13        -3.7030    6.0514   -0.5969 H         1 <0>         0.1332
     49 H14        -3.4047    2.6850   -0.9367 H         1 <0>         0.1011
     50 H15        -2.6559    4.2967   -1.0363 H         1 <0>         0.0582
     51 H16        -4.4285    4.1362   -1.0555 H         1 <0>         0.0588
     52 H17        -6.4515    0.4085   10.3883 H         1 <0>         0.0999
     53 H18        -6.6524    2.0059   11.1474 H         1 <0>         0.1017
     54 H19        -8.6838    0.4019   11.8981 H         1 <0>         0.4097
     55 H20       -10.7714   -0.1844   12.7719 H         1 <0>         0.4099
     56 H21       -12.3643   -0.5600    9.6506 H         1 <0>         0.1616
     57 H22       -14.7724   -0.9439    9.3199 H         1 <0>         0.1314
     58 H23       -16.3288   -0.7302   11.2128 H         1 <0>         0.1283
     59 H24       -15.4837   -0.1427   13.4482 H         1 <0>         0.1331
     60 H25       -13.4318    0.6716   16.0297 H         1 <0>         0.1011
     61 H26       -14.6642    1.1801   14.8504 H         1 <0>         0.0587
     62 H27       -14.4479   -0.5469   15.2229 H         1 <0>         0.0582
     63 H28        -4.9485    4.3878    8.7103 H         1 <0>         0.0868
     64 H29        -4.5419    3.9860   10.3960 H         1 <0>         0.0599
     65 H30        -3.3016    3.8556    9.1260 H         1 <0>         0.0517
@<TRIPOS>BOND
     1    1    2 1
     2    1   38 1
     3    1   39 1
     4    1   40 1
     5    2    6 1
     6    2    3 1
     7    2   37 1
     8    3    4 1
     9    3    5 1
    10    3   22 1
    11    5    6 1
    12    5   41 1
    13    5   42 1
    14    6    7 1
    15    6    8 1
    16    8    9 2
    17    8   10 am
    18   10   11 1
    19   10   43 1
    20   11   12 2
    21   11   13 1
    22   13   14 1
    23   13   44 1
    24   14   19 ar
    25   14   15 ar
    26   15   16 ar
    27   15   45 1
    28   16   17 ar
    29   16   46 1
    30   17   18 ar
    31   17   47 1
    32   18   19 ar
    33   18   48 1
    34   19   20 1
    35   20   21 1
    36   21   49 1
    37   21   50 1
    38   21   51 1
    39   22   23 1
    40   22   52 1
    41   22   53 1
    42   23   24 2
    43   23   25 am
    44   25   26 1
    45   25   54 1
    46   26   27 2
    47   26   28 1
    48   28   29 1
    49   28   55 1
    50   29   34 ar
    51   29   30 ar
    52   30   31 ar
    53   30   56 1
    54   31   32 ar
    55   31   57 1
    56   32   33 ar
    57   32   58 1
    58   33   34 ar
    59   33   59 1
    60   34   35 1
    61   35   36 1
    62   36   60 1
    63   36   61 1
    64   36   62 1
    65   37   63 1
    66   37   64 1
    67   37   65 1
@<TRIPOS>MOLECULE
ZINC21320712
   60    63     0     0     0
SMALL
USER_CHARGES
2-[[4-amino-5-[(N'E)-N'-[(2-benzyloxyphenyl)methylene]hydrazino]-1,2,4-triazol-3-yl]sulfanyl]-N-(p-tolyl)acetamide
@<TRIPOS>ATOM
      1 C1          1.1432    3.5928   -0.0155 C.3       1 <0>        -0.1169
      2 C2          1.1682    2.0860   -0.0167 C.ar      1 <0>        -0.0997
      3 C3          2.1113    1.4123   -0.7709 C.ar      1 <0>        -0.1006
      4 C4          2.1370    0.0314   -0.7742 C.ar      1 <0>        -0.1181
      5 C5          1.2143   -0.6805   -0.0189 C.ar      1 <0>         0.1432
      6 C6          0.2684   -0.0009    0.7374 C.ar      1 <0>        -0.1393
      7 C7          0.2481    1.3801    0.7364 C.ar      1 <0>        -0.1019
      8 N1          1.2373   -2.0795   -0.0204 N.am      1 <0>        -0.6784
      9 C8          2.4096   -2.7341   -0.1369 C.2       1 <0>         0.5377
     10 O1          3.4521   -2.1143   -0.1440 O.2       1 <0>        -0.5073
     11 C9          2.4252   -4.2361   -0.2581 C.3       1 <0>        -0.1428
     12 S1          4.1390   -4.8138   -0.3979 S.3       1 <0>         0.0678
     13 C10         3.9894   -6.5644   -0.5301 C.2       1 <0>         0.1667
     14 N2          2.8685   -7.2455   -0.5178 N.2       1 <0>        -0.3004
     15 N3          3.1857   -8.6038   -0.6489 N.2       1 <0>        -0.2905
     16 C11         4.4901   -8.7092   -0.7288 C.2       1 <0>         0.4836
     17 N4          5.0207   -7.4511   -0.6574 N.pl3     1 <0>        -0.2640
     18 N5          6.3490   -7.1360   -0.7057 N.3       1 <0>        -0.7794
     19 N6          5.2061   -9.8898   -0.8630 N.pl3     1 <0>        -0.5662
     20 N7          4.5306  -11.1157   -0.9238 N.2       1 <0>        -0.1590
     21 C12         5.2009  -12.2209   -1.0495 C.2       1 <0>         0.0829
     22 C13         4.4904  -13.5104   -1.1135 C.ar      1 <0>        -0.0851
     23 C14         5.2075  -14.7015   -1.2486 C.ar      1 <0>        -0.0532
     24 C15         4.5363  -15.9049   -1.3079 C.ar      1 <0>        -0.1640
     25 C16         3.1543  -15.9376   -1.2340 C.ar      1 <0>        -0.0626
     26 C17         2.4333  -14.7656   -1.1007 C.ar      1 <0>        -0.2179
     27 C18         3.0917  -13.5490   -1.0333 C.ar      1 <0>         0.1635
     28 O2          2.3843  -12.3975   -0.8961 O.3       1 <0>        -0.2664
     29 C19         0.9621  -12.5147   -0.8210 C.3       1 <0>         0.0965
     30 C20         0.3523  -11.1447   -0.6717 C.ar      1 <0>        -0.0845
     31 C21         0.1384  -10.6170    0.5879 C.ar      1 <0>        -0.0868
     32 C22        -0.4160   -9.3581    0.7248 C.ar      1 <0>        -0.1156
     33 C23        -0.7667   -8.6315   -0.3977 C.ar      1 <0>        -0.0963
     34 C24        -0.5580   -9.1616   -1.6572 C.ar      1 <0>        -0.1153
     35 C25         0.0017  -10.4182   -1.7942 C.ar      1 <0>        -0.0861
     36 H1          1.9433    3.9733   -0.6674 H         1 <0>         0.0655
     37 H2          1.2988    3.9613    1.0092 H         1 <0>         0.0697
     38 H3          0.1692    3.9436   -0.3874 H         1 <0>         0.0698
     39 H4          2.8315    1.9666   -1.3546 H         1 <0>         0.1255
     40 H5          2.8736   -0.4942   -1.3637 H         1 <0>         0.1336
     41 H6         -0.4507   -0.5517    1.3255 H         1 <0>         0.1265
     42 H7         -0.4870    1.9092    1.3247 H         1 <0>         0.1263
     43 H8          0.2985   -2.6451    0.0735 H         1 <0>         0.4394
     44 H9          1.9600   -4.6808    0.6340 H         1 <0>         0.1306
     45 H10         1.8624   -4.5376   -1.1539 H         1 <0>         0.1315
     46 H11         7.0999   -7.9330   -0.8104 H         1 <0>         0.4355
     47 H12         6.6678   -6.0853   -0.6399 H         1 <0>         0.4475
     48 H13         6.3042   -9.8634   -0.9217 H         1 <0>         0.4022
     49 H14         6.2990  -12.1945   -1.1082 H         1 <0>         0.1215
     50 H15         6.2857  -14.6801   -1.3062 H         1 <0>         0.1334
     51 H16         5.0912  -16.8255   -1.4120 H         1 <0>         0.1282
     52 H17         2.6364  -16.8842   -1.2812 H         1 <0>         0.1268
     53 H18         1.3553  -14.7992   -1.0444 H         1 <0>         0.1311
     54 H19         0.5840  -12.9861   -1.7401 H         1 <0>         0.0680
     55 H20         0.6905  -13.1335    0.0469 H         1 <0>         0.0679
     56 H21         0.4083  -11.1864    1.4650 H         1 <0>         0.1140
     57 H22        -0.5787   -8.9438    1.7088 H         1 <0>         0.1159
     58 H23        -1.2033   -7.6495   -0.2907 H         1 <0>         0.1157
     59 H24        -0.8320   -8.5940   -2.5342 H         1 <0>         0.1160
     60 H25         0.1647  -10.8323   -2.7782 H         1 <0>         0.1140
@<TRIPOS>BOND
     1    1    2 1
     2    1   36 1
     3    1   37 1
     4    1   38 1
     5    2    7 ar
     6    2    3 ar
     7    3    4 ar
     8    3   39 1
     9    4    5 ar
    10    4   40 1
    11    5    6 ar
    12    5    8 1
    13    6    7 ar
    14    6   41 1
    15    7   42 1
    16    8    9 am
    17    8   43 1
    18    9   10 2
    19    9   11 1
    20   11   12 1
    21   11   44 1
    22   11   45 1
    23   12   13 1
    24   13   17 1
    25   13   14 2
    26   14   15 1
    27   15   16 2
    28   16   17 1
    29   16   19 1
    30   17   18 1
    31   18   46 1
    32   18   47 1
    33   19   20 1
    34   19   48 1
    35   20   21 2
    36   21   22 1
    37   21   49 1
    38   22   27 ar
    39   22   23 ar
    40   23   24 ar
    41   23   50 1
    42   24   25 ar
    43   24   51 1
    44   25   26 ar
    45   25   52 1
    46   26   27 ar
    47   26   53 1
    48   27   28 1
    49   28   29 1
    50   29   30 1
    51   29   54 1
    52   29   55 1
    53   30   35 ar
    54   30   31 ar
    55   31   32 ar
    56   31   56 1
    57   32   33 ar
    58   32   57 1
    59   33   34 ar
    60   33   58 1
    61   34   35 ar
    62   34   59 1
    63   35   60 1
@<TRIPOS>MOLECULE
ZINC36519805
   68    69     0     0     0
SMALL
USER_CHARGES

@<TRIPOS>ATOM
      1 C1         -2.3957   -4.9952    2.2226 C.3       1 <0>        -0.1544
      2 C2         -1.6284   -5.8489    1.2110 C.3       1 <0>        -0.1252
      3 C3         -0.7055   -4.9523    0.3831 C.3       1 <0>        -0.1195
      4 C4          0.0618   -5.8059   -0.6286 C.3       1 <0>        -0.1162
      5 C5          0.9846   -4.9094   -1.4565 C.3       1 <0>        -0.1404
      6 C6          1.7519   -5.7630   -2.4681 C.3       1 <0>         0.1417
      7 N1          2.6356   -4.9046   -3.2608 N.am      1 <0>        -0.5995
      8 C7          3.9674   -4.5602   -2.7570 C.3       1 <0>         0.1705
      9 H1          3.9203   -4.4107   -1.6783 H         1 <0>         0.1271
     10 C8          4.9270   -5.6800   -3.0675 C.ar      1 <0>        -0.2019
     11 C9          6.1680   -5.7209   -2.4500 C.ar      1 <0>         0.1432
     12 C10         7.0510   -6.7513   -2.7357 C.ar      1 <0>        -0.1758
     13 C11         6.6928   -7.7410   -3.6386 C.ar      1 <0>         0.1606
     14 C12         5.4515   -7.7006   -4.2554 C.ar      1 <0>        -0.1817
     15 C13         4.5668   -6.6725   -3.9664 C.ar      1 <0>         0.1722
     16 O1          3.3485   -6.6355   -4.5673 O.3       1 <0>        -0.4818
     17 O2          7.5585   -8.7503   -3.9192 O.3       1 <0>        -0.4910
     18 O3          6.5190   -4.7510   -1.5652 O.3       1 <0>        -0.4890
     19 C14         4.4430   -3.2929   -3.4195 C.2       1 <0>         0.5221
     20 O4          3.6445   -2.5480   -3.9472 O.2       1 <0>        -0.5055
     21 N2          5.7556   -2.9873   -3.4256 N.am      1 <0>        -0.7205
     22 C15         6.1854   -1.6076   -3.6663 C.3       1 <0>         0.1736
     23 C16         5.5985   -0.6951   -2.5875 C.3       1 <0>        -0.1613
     24 C17         7.7129   -1.5340   -3.6208 C.3       1 <0>        -0.1554
     25 C18         5.6936   -1.1528   -5.0418 C.3       1 <0>        -0.1722
     26 C19         2.2233   -4.4316   -4.4536 C.2       1 <0>         0.6052
     27 O5          1.0472   -4.1844   -4.6358 O.2       1 <0>        -0.4986
     28 C20         3.2015   -4.2135   -5.5405 C.ar      1 <0>        -0.1112
     29 C21         4.5682   -4.3511   -5.2917 C.ar      1 <0>        -0.1198
     30 C22         5.4756   -4.1467   -6.3103 C.ar      1 <0>        -0.1121
     31 C23         5.0337   -3.8054   -7.5765 C.ar      1 <0>        -0.0361
     32 C24         3.6808   -3.6670   -7.8296 C.ar      1 <0>        -0.0479
     33 C25         2.7623   -3.8747   -6.8211 C.ar      1 <0>        -0.0098
     34 N3          3.2172   -3.3012   -9.1869 N.pl3     1 <0>         0.0328
     35 O6          4.0206   -3.1238  -10.0727 O.2       1 <0>        -0.1539
     36 O7          2.0351   -3.1798   -9.4096 O.3       1 <0>        -0.1490
     37 H2         -1.6895   -4.4921    2.8832 H         1 <0>         0.0527
     38 H3         -2.9910   -4.2514    1.6930 H         1 <0>         0.0540
     39 H4         -3.0532   -5.6339    2.8124 H         1 <0>         0.0535
     40 H5         -1.0331   -6.5926    1.7406 H         1 <0>         0.0597
     41 H6         -2.3346   -6.3520    0.5504 H         1 <0>         0.0613
     42 H7         -1.3008   -4.2085   -0.1465 H         1 <0>         0.0626
     43 H8          0.0006   -4.4492    1.0436 H         1 <0>         0.0597
     44 H9          0.6571   -6.5497   -0.0990 H         1 <0>         0.0608
     45 H10        -0.6444   -6.3090   -1.2891 H         1 <0>         0.0648
     46 H11         0.3893   -4.1656   -1.9861 H         1 <0>         0.0748
     47 H12         1.6908   -4.4063   -0.7959 H         1 <0>         0.0589
     48 H13         2.3472   -6.5068   -1.9385 H         1 <0>         0.0745
     49 H14         1.0458   -6.2661   -3.1287 H         1 <0>         0.0868
     50 H15         8.0178   -6.7828   -2.2553 H         1 <0>         0.1488
     51 H16         5.1727   -8.4712   -4.9588 H         1 <0>         0.1459
     52 H17         3.3583   -6.2472   -5.4529 H         1 <0>         0.3867
     53 H18         7.4661   -9.5199   -3.3410 H         1 <0>         0.4021
     54 H19         6.3470   -4.9802   -0.6416 H         1 <0>         0.4044
     55 H20         6.4158   -3.6809   -3.2707 H         1 <0>         0.4063
     56 H21         5.9488   -1.0191   -1.6075 H         1 <0>         0.0593
     57 H22         5.9182    0.3314   -2.7665 H         1 <0>         0.0678
     58 H23         4.5102   -0.7476   -2.6199 H         1 <0>         0.0656
     59 H24         8.1310   -2.1841   -4.3894 H         1 <0>         0.0605
     60 H25         8.0327   -0.5074   -3.7999 H         1 <0>         0.0756
     61 H26         8.0633   -1.8580   -2.6408 H         1 <0>         0.0661
     62 H27         4.6053   -1.2053   -5.0742 H         1 <0>         0.0859
     63 H28         6.0133   -0.1263   -5.2209 H         1 <0>         0.0612
     64 H29         6.1117   -1.8029   -5.8104 H         1 <0>         0.0536
     65 H30         4.9144   -4.6168   -4.3037 H         1 <0>         0.1956
     66 H31         6.5332   -4.2529   -6.1191 H         1 <0>         0.1478
     67 H32         5.7483   -3.6461   -8.3704 H         1 <0>         0.1579
     68 H33         1.7061   -3.7707   -7.0212 H         1 <0>         0.1660
@<TRIPOS>BOND
     1    1    2 1
     2    1   37 1
     3    1   38 1
     4    1   39 1
     5    2    3 1
     6    2   40 1
     7    2   41 1
     8    3    4 1
     9    3   42 1
    10    3   43 1
    11    4    5 1
    12    4   44 1
    13    4   45 1
    14    5    6 1
    15    5   46 1
    16    5   47 1
    17    6    7 1
    18    6   48 1
    19    6   49 1
    20    7    8 1
    21    7   26 am
    22    8    9 1
    23    8   10 1
    24    8   19 1
    25   10   15 ar
    26   10   11 ar
    27   11   12 ar
    28   11   18 1
    29   12   13 ar
    30   12   50 1
    31   13   14 ar
    32   13   17 1
    33   14   15 ar
    34   14   51 1
    35   15   16 1
    36   16   52 1
    37   17   53 1
    38   18   54 1
    39   19   20 2
    40   19   21 am
    41   21   22 1
    42   21   55 1
    43   22   23 1
    44   22   24 1
    45   22   25 1
    46   23   56 1
    47   23   57 1
    48   23   58 1
    49   24   59 1
    50   24   60 1
    51   24   61 1
    52   25   62 1
    53   25   63 1
    54   25   64 1
    55   26   27 2
    56   26   28 1
    57   28   33 ar
    58   28   29 ar
    59   29   30 ar
    60   29   65 1
    61   30   31 ar
    62   30   66 1
    63   31   32 ar
    64   31   67 1
    65   32   33 ar
    66   32   34 1
    67   33   68 1
    68   34   35 2
    69   34   36 1
@<TRIPOS>MOLECULE
ZINC39709204
   61    65     0     0     0
SMALL
USER_CHARGES

@<TRIPOS>ATOM
      1 C1         -0.0195    1.4153    0.0233 C.ar      1 <0>        -0.1639
      2 C2          1.1716    2.1178    0.0129 C.ar      1 <0>        -0.0750
      3 C3          2.3747    1.4400   -0.0055 C.ar      1 <0>        -0.1679
      4 C4          2.3875    0.0510   -0.0135 C.ar      1 <0>         0.2279
      5 C5          1.1892   -0.6516   -0.0030 C.ar      1 <0>        -0.1842
      6 C6         -0.0104    0.0325    0.0154 C.ar      1 <0>        -0.0780
      7 N1          3.6025   -0.6377   -0.0326 N.pl3     1 <0>        -0.6471
      8 C7          3.7881   -2.1029   -0.0491 C.3       1 <0>         0.2876
      9 H1          3.0325   -2.5759   -0.6764 H         1 <0>         0.0978
     10 N2          5.1419   -2.2939   -0.6323 N.3       1 <0>        -0.4775
     11 N3          5.9087   -1.1756   -0.0607 N.3       1 <0>        -0.4723
     12 C8          4.9518   -0.0458   -0.0466 C.3       1 <0>         0.2738
     13 H2          5.0813    0.5674   -0.9385 H         1 <0>         0.0999
     14 S1          5.2048    0.9597    1.4419 S.3       1 <0>        -0.1339
     15 C9          4.9964   -0.2167    2.8068 C.3       1 <0>        -0.1205
     16 C10         5.1836    0.4989    4.1198 C.2       1 <0>         0.5356
     17 O1          5.4331    1.6857    4.1334 O.2       1 <0>        -0.4924
     18 N4          5.0739   -0.1800    5.2789 N.am      1 <0>        -0.6687
     19 C11         5.3425    0.4611    6.4933 C.ar      1 <0>         0.2035
     20 C12         5.9428   -0.2388    7.5317 C.ar      1 <0>        -0.1436
     21 C13         6.2067    0.3969    8.7292 C.ar      1 <0>        -0.0321
     22 C14         5.8737    1.7288    8.8947 C.ar      1 <0>        -0.0679
     23 C15         5.2755    2.4284    7.8627 C.ar      1 <0>        -0.0325
     24 C16         5.0146    1.8002    6.6607 C.ar      1 <0>        -0.1240
     25 N5          6.1579    2.4069   10.1793 N.pl3     1 <0>         0.0364
     26 O2          6.6805    1.7964   11.0825 O.2       1 <0>        -0.1606
     27 O3          5.8674    3.5714   10.3254 O.3       1 <0>        -0.1604
     28 C17         3.7305   -2.6658    1.3724 C.3       1 <0>        -0.1161
     29 C18         3.9250   -4.1827    1.3286 C.3       1 <0>        -0.0339
     30 C19         3.8683   -4.7371    2.7288 C.2       1 <0>         0.2898
     31 N6          4.6125   -4.3388    3.7188 N.2       1 <0>        -0.4879
     32 C20         4.3037   -5.0465    4.8357 C.ar      1 <0>         0.0471
     33 C21         4.7808   -5.0315    6.1487 C.ar      1 <0>        -0.0686
     34 C22         4.2554   -5.8888    7.0739 C.ar      1 <0>        -0.1246
     35 C23         3.2496   -6.7780    6.7239 C.ar      1 <0>        -0.1007
     36 C24         2.7636   -6.8108    5.4339 C.ar      1 <0>        -0.1111
     37 C25         3.2848   -5.9471    4.4807 C.ar      1 <0>         0.0453
     38 N7          3.0273   -5.7229    3.1430 N.pl3     1 <0>        -0.5989
     39 H3         -0.9589    1.9478    0.0423 H         1 <0>         0.1207
     40 H4          1.1609    3.1978    0.0188 H         1 <0>         0.1244
     41 H5          3.3046    1.9893   -0.0140 H         1 <0>         0.1265
     42 H6          1.1956   -1.7315   -0.0095 H         1 <0>         0.1167
     43 H7         -0.9424   -0.5130    0.0235 H         1 <0>         0.1225
     44 H8          5.1134   -2.2354   -1.6392 H         1 <0>         0.3280
     45 H9          6.7120   -0.9588   -0.6314 H         1 <0>         0.3649
     46 H10         3.9954   -0.6462    2.7667 H         1 <0>         0.1158
     47 H11         5.7367   -1.0117    2.7175 H         1 <0>         0.1320
     48 H12         4.8086   -1.1130    5.2713 H         1 <0>         0.4223
     49 H13         6.2028   -1.2791    7.4032 H         1 <0>         0.1519
     50 H14         6.6732   -0.1470    9.5373 H         1 <0>         0.1587
     51 H15         5.0164    3.4684    7.9952 H         1 <0>         0.1574
     52 H16         4.5521    2.3485    5.8534 H         1 <0>         0.1617
     53 H17         4.5201   -2.2154    1.9738 H         1 <0>         0.0992
     54 H18         2.7611   -2.4365    1.8150 H         1 <0>         0.0708
     55 H19         3.1354   -4.6331    0.7272 H         1 <0>         0.0797
     56 H20         4.8944   -4.4121    0.8860 H         1 <0>         0.1132
     57 H21         2.3703   -6.1846    2.5988 H         1 <0>         0.4221
     58 H22         5.5638   -4.3436    6.4318 H         1 <0>         0.1275
     59 H23         4.6272   -5.8743    8.0878 H         1 <0>         0.1304
     60 H24         2.8448   -7.4492    7.4669 H         1 <0>         0.1310
     61 H25         1.9810   -7.5054    5.1665 H         1 <0>         0.1227
@<TRIPOS>BOND
     1    1    6 ar
     2    1    2 ar
     3    1   39 1
     4    2    3 ar
     5    2   40 1
     6    3    4 ar
     7    3   41 1
     8    4    5 ar
     9    4    7 1
    10    5    6 ar
    11    5   42 1
    12    6   43 1
    13    7   12 1
    14    7    8 1
    15    8    9 1
    16    8   10 1
    17    8   28 1
    18   10   11 1
    19   10   44 1
    20   11   12 1
    21   11   45 1
    22   12   13 1
    23   12   14 1
    24   14   15 1
    25   15   16 1
    26   15   46 1
    27   15   47 1
    28   16   17 2
    29   16   18 am
    30   18   19 1
    31   18   48 1
    32   19   24 ar
    33   19   20 ar
    34   20   21 ar
    35   20   49 1
    36   21   22 ar
    37   21   50 1
    38   22   23 ar
    39   22   25 1
    40   23   24 ar
    41   23   51 1
    42   24   52 1
    43   25   26 2
    44   25   27 1
    45   28   29 1
    46   28   53 1
    47   28   54 1
    48   29   55 1
    49   29   56 1
    50   29   30 1
    51   30   31 2
    52   30   38 1
    53   31   32 1
    54   32   33 ar
    55   32   37 ar
    56   33   34 ar
    57   33   58 1
    58   34   35 ar
    59   34   59 1
    60   35   36 ar
    61   35   60 1
    62   36   37 ar
    63   36   61 1
    64   37   38 1
    65   38   57 1
@<TRIPOS>MOLECULE
ZINC63867164
   61    64     0     0     0
SMALL
USER_CHARGES

@<TRIPOS>ATOM
      1 C1         -0.0184    1.5028    0.0103 C.3       1 <0>        -0.1001
      2 C2          0.0021   -0.0041    0.0020 C.ar      1 <0>         0.1991
      3 C3          0.0059   -0.6991   -1.1973 C.ar      1 <0>        -0.2857
      4 C4          0.0249   -2.0846   -1.1597 C.ar      1 <0>         0.1970
      5 N1          0.0386   -2.6979    0.0121 N.ar      1 <0>        -0.5821
      6 C5          0.0345   -2.0038    1.1397 C.ar      1 <0>         0.5577
      7 N2          0.0220   -0.6796    1.1391 N.ar      1 <0>        -0.4616
      8 N3          0.0493   -2.6807    2.3522 N.pl3     1 <0>        -0.6400
      9 C6          0.0452   -1.9806    3.5254 C.2       1 <0>         0.5964
     10 N4          0.0272   -0.6546    3.5064 N.2       1 <0>        -0.6598
     11 C7          0.0233    0.0278    4.6501 C.2       1 <0>         0.4878
     12 O1          0.0362   -0.5647    5.7113 O.2       1 <0>        -0.5529
     13 C8          0.0027    1.5345    4.6285 C.3       1 <0>        -0.0794
     14 S1          0.0021    2.1637    6.3299 S.3       1 <0>        -0.0967
     15 C9         -0.0233    3.9665    6.1311 C.3       1 <0>         0.1430
     16 H1         -0.0132    4.4724    7.0965 H         1 <0>         0.1136
     17 N5         -1.1773    4.4105    5.2900 N.3       1 <0>        -0.5203
     18 N6         -0.9441    5.7008    4.6754 N.3       1 <0>        -0.5564
     19 C10         0.4650    5.9955    4.3200 C.3       1 <0>         0.1407
     20 H2          0.7964    6.9259    4.7812 H         1 <0>         0.1141
     21 S2          1.3541    4.5498    5.0440 S.3       1 <0>        -0.2751
     22 C11         0.6465    6.0463    2.8017 C.3       1 <0>        -0.1604
     23 N7          0.0598   -2.6446    4.7147 N.2       1 <0>        -0.6648
     24 C12         0.0797   -4.1093    4.7358 C.3       1 <0>         0.0753
     25 C13         0.0931   -4.5984    6.1854 C.3       1 <0>        -0.0772
     26 C14         0.1136   -6.1051    6.2070 C.2       1 <0>         0.1232
     27 C15         1.2012   -6.9021    6.3133 C.ar      1 <0>        -0.1964
     28 C16         2.6355   -6.6155    6.4352 C.ar      1 <0>         0.0237
     29 C17         3.5058   -7.6479    6.5247 C.ar      1 <0>        -0.0961
     30 C18         3.0718   -8.9818    6.5035 C.ar      1 <0>         0.0524
     31 C19         1.7707   -9.3232    6.3941 C.ar      1 <0>        -0.1955
     32 C20         0.7694   -8.3180    6.2939 C.ar      1 <0>         0.3243
     33 N8         -0.5344   -8.3934    6.1800 N.pl3     1 <0>        -0.5930
     34 C21        -1.0783   -7.0320    6.1209 C.3       1 <0>         0.0564
     35 Cl1         5.2031   -7.3132    6.6690 Cl        1 <0>        -0.0267
     36 C22         0.0292   -2.8823   -2.4383 C.3       1 <0>        -0.1009
     37 H3          1.0042    1.8801    0.0026 H         1 <0>         0.0795
     38 H4         -0.5455    1.8639   -0.8728 H         1 <0>         0.0716
     39 H5         -0.5286    1.8543    0.9071 H         1 <0>         0.0840
     40 H6         -0.0060   -0.1727   -2.1402 H         1 <0>         0.1352
     41 H7          0.8854    1.9024    4.1054 H         1 <0>         0.0995
     42 H8         -0.8944    1.8783    4.1137 H         1 <0>         0.0974
     43 H9         -2.0336    4.4137    5.8237 H         1 <0>         0.3642
     44 H10        -1.5533    5.8394    3.8832 H         1 <0>         0.3674
     45 H11         0.0097    6.8270    2.3856 H         1 <0>         0.0741
     46 H12         1.6885    6.2640    2.5674 H         1 <0>         0.0730
     47 H13         0.3704    5.0841    2.3704 H         1 <0>         0.0728
     48 H14        -0.8075   -4.4920    4.2313 H         1 <0>         0.0150
     49 H15         0.9723   -4.4679    4.2231 H         1 <0>         0.0164
     50 H16         0.9803   -4.2157    6.6898 H         1 <0>         0.1104
     51 H17        -0.7995   -4.2398    6.6981 H         1 <0>         0.1139
     52 H18         2.9911   -5.5958    6.4527 H         1 <0>         0.1705
     53 H19         3.8090   -9.7676    6.5775 H         1 <0>         0.1642
     54 H20         1.4882  -10.3656    6.3821 H         1 <0>         0.1644
     55 H21        -1.7516   -6.8572    6.9600 H         1 <0>         0.1761
     56 H22        -1.6045   -6.8808    5.1784 H         1 <0>         0.1756
     57 H23         1.0579   -3.0607   -2.7517 H         1 <0>         0.0795
     58 H24        -0.4709   -3.8365   -2.2729 H         1 <0>         0.0752
     59 H25        -0.4961   -2.3266   -3.2150 H         1 <0>         0.0774
     60 H26        -1.0532   -9.2122    6.1448 H         1 <0>         0.4523
     61 H27         0.0625   -3.6505    2.3661 H         1 <0>         0.4067
@<TRIPOS>BOND
     1    1    2 1
     2    1   37 1
     3    1   38 1
     4    1   39 1
     5    2    7 ar
     6    2    3 ar
     7    3    4 ar
     8    3   40 1
     9    4    5 ar
    10    4   36 1
    11    5    6 ar
    12    6    7 ar
    13    6    8 1
    14    8    9 1
    15    8   61 1
    16    9   23 1
    17    9   10 2
    18   10   11 1
    19   11   12 2
    20   11   13 1
    21   13   14 1
    22   13   41 1
    23   13   42 1
    24   14   15 1
    25   15   16 1
    26   15   21 1
    27   15   17 1
    28   17   18 1
    29   17   43 1
    30   18   19 1
    31   18   44 1
    32   19   20 1
    33   19   21 1
    34   19   22 1
    35   22   45 1
    36   22   46 1
    37   22   47 1
    38   23   24 1
    39   24   25 1
    40   24   48 1
    41   24   49 1
    42   25   26 1
    43   25   50 1
    44   25   51 1
    45   26   34 1
    46   26   27 2
    47   27   32 ar
    48   27   28 ar
    49   28   29 ar
    50   28   52 1
    51   29   30 ar
    52   29   35 1
    53   30   31 ar
    54   30   53 1
    55   31   32 ar
    56   31   54 1
    57   32   33 2
    58   33   34 1
    59   33   60 1
    60   34   55 1
    61   34   56 1
    62   36   57 1
    63   36   58 1
    64   36   59 1
@<TRIPOS>MOLECULE
ZINC14151986
   55    57     0     0     0
SMALL
USER_CHARGES
[2-[[(1S,2S)-2-methylcyclohexyl]carbamoylamino]-2-oxo-ethyl] 3-amino-4,6-dimethyl-thieno[5,4-b]pyridine-2-carboxylate
@<TRIPOS>ATOM
      1 C1          3.5522   -0.9991   -0.4465 C.3       1 <0>        -0.1412
      2 C2          2.2559   -0.2325   -0.3924 C.ar      1 <0>         0.0325
      3 C3          1.0544   -0.8973   -0.3171 C.ar      1 <0>        -0.1942
      4 C4         -0.1371   -0.1895   -0.2670 C.ar      1 <0>         0.1946
      5 N1         -0.1326    1.1291   -0.2914 N.ar      1 <0>        -0.4592
      6 C5          0.9905    1.8104   -0.3629 C.ar      1 <0>         0.1337
      7 C6          2.2567    1.1842   -0.4180 C.ar      1 <0>        -0.2050
      8 C7          3.3919    2.0907   -0.4941 C.2       1 <0>         0.3178
      9 C8          3.1456    3.4470   -0.5055 C.2       1 <0>        -0.3313
     10 S1          1.3687    3.5446   -0.4136 S.3       1 <0>         0.1654
     11 C9          4.0798    4.5074   -0.5735 C.2       1 <0>         0.5728
     12 O1          5.2713    4.2660   -0.6315 O.2       1 <0>        -0.5205
     13 O2          3.6497    5.7869   -0.5739 O.3       1 <0>        -0.3239
     14 C10         4.6480    6.8069   -0.6444 C.3       1 <0>         0.0553
     15 C11         3.9850    8.1602   -0.6340 C.2       1 <0>         0.5171
     16 O3          2.7771    8.2430   -0.5722 O.2       1 <0>        -0.4360
     17 N2          4.7350    9.2785   -0.6933 N.am      1 <0>        -0.6892
     18 C12         4.1420   10.4888   -0.6839 C.2       1 <0>         0.6960
     19 O4          2.9311   10.5718   -0.6220 O.2       1 <0>        -0.5238
     20 N3          4.8920   11.6071   -0.7433 N.am      1 <0>        -0.7311
     21 C13         4.2475   12.9227   -0.7331 C.3       1 <0>         0.1659
     22 H1          3.3021   12.8683   -1.2729 H         1 <0>         0.0921
     23 C14         3.9856   13.3511    0.7122 C.3       1 <0>        -0.1314
     24 C15         3.3125   14.7250    0.7228 C.3       1 <0>        -0.1178
     25 C16         4.2283   15.7468    0.0460 C.3       1 <0>        -0.1227
     26 C17         4.4902   15.3184   -1.3993 C.3       1 <0>        -0.1121
     27 C18         5.1633   13.9445   -1.4099 C.3       1 <0>        -0.0973
     28 H2          6.1087   13.9988   -0.8701 H         1 <0>         0.0764
     29 C19         5.4252   13.5160   -2.8552 C.3       1 <0>        -0.1488
     30 N4          4.6888    1.6028   -0.5542 N.pl3     1 <0>        -0.8335
     31 C20        -1.4458   -0.9321   -0.1847 C.3       1 <0>        -0.1100
     32 H3          3.8702   -1.1025   -1.4840 H         1 <0>         0.0885
     33 H4          4.3159   -0.4618    0.1157 H         1 <0>         0.0835
     34 H5          3.4081   -1.9877   -0.0104 H         1 <0>         0.0863
     35 H6          1.0386   -1.9770   -0.2972 H         1 <0>         0.1469
     36 H7          5.3150    6.7225    0.2135 H         1 <0>         0.1073
     37 H8          5.2219    6.6906   -1.5638 H         1 <0>         0.1074
     38 H9          5.7014    9.2123   -0.7427 H         1 <0>         0.4109
     39 H10         5.8585   11.5408   -0.7927 H         1 <0>         0.3976
     40 H11         3.3331   12.6231    1.1944 H         1 <0>         0.0693
     41 H12         4.9309   13.4054    1.2520 H         1 <0>         0.0640
     42 H13         3.1259   15.0303    1.7524 H         1 <0>         0.0662
     43 H14         2.3671   14.6707    0.1829 H         1 <0>         0.0658
     44 H15         5.1736   15.8012    0.5858 H         1 <0>         0.0628
     45 H16         3.7488   16.7257    0.0535 H         1 <0>         0.0655
     46 H17         5.1427   16.0464   -1.8815 H         1 <0>         0.0690
     47 H18         3.5449   15.2641   -1.9392 H         1 <0>         0.0668
     48 H19         4.4799   13.4617   -3.3950 H         1 <0>         0.0573
     49 H20         6.0777   14.2440   -3.3374 H         1 <0>         0.0588
     50 H21         5.9048   12.5372   -2.8627 H         1 <0>         0.0542
     51 H22         4.8579    0.7178   -0.9134 H         1 <0>         0.4046
     52 H23         5.4267    2.1466   -0.2369 H         1 <0>         0.4180
     53 H24        -1.8153   -1.1299   -1.1909 H         1 <0>         0.0892
     54 H25        -1.2956   -1.8760    0.3394 H         1 <0>         0.0839
     55 H26        -2.1731   -0.3275    0.3571 H         1 <0>         0.0857
@<TRIPOS>BOND
     1    1    2 1
     2    1   32 1
     3    1   33 1
     4    1   34 1
     5    2    7 ar
     6    2    3 ar
     7    3    4 ar
     8    3   35 1
     9    4    5 ar
    10    4   31 1
    11    5    6 ar
    12    6   10 1
    13    6    7 ar
    14    7    8 1
    15    8    9 2
    16    8   30 1
    17    9   10 1
    18    9   11 1
    19   11   12 2
    20   11   13 1
    21   13   14 1
    22   14   15 1
    23   14   36 1
    24   14   37 1
    25   15   16 2
    26   15   17 am
    27   17   18 am
    28   17   38 1
    29   18   19 2
    30   18   20 am
    31   20   21 1
    32   20   39 1
    33   21   22 1
    34   21   27 1
    35   21   23 1
    36   23   24 1
    37   23   40 1
    38   23   41 1
    39   24   25 1
    40   24   42 1
    41   24   43 1
    42   25   26 1
    43   25   44 1
    44   25   45 1
    45   26   27 1
    46   26   46 1
    47   26   47 1
    48   27   28 1
    49   27   29 1
    50   29   48 1
    51   29   49 1
    52   29   50 1
    53   30   51 1
    54   30   52 1
    55   31   53 1
    56   31   54 1
    57   31   55 1
@<TRIPOS>MOLECULE
ZINC32826259
   45    47     0     0     0
SMALL
USER_CHARGES
ethyl 5-[(4-sulfamoylphenyl)carbamoylamino]benzothiophene-2-carboxylate
@<TRIPOS>ATOM
      1 C1          9.4929   13.7976    0.1250 C.3       1 <0>        -0.1564
      2 C2          7.9768   13.5924    0.1426 C.3       1 <0>         0.0619
      3 O1          7.6807   12.1710    0.1412 O.3       1 <0>        -0.3482
      4 C3          6.3797   11.8166    0.1556 C.2       1 <0>         0.5539
      5 O2          5.5167   12.6728    0.1691 O.2       1 <0>        -0.4905
      6 C4          6.0055   10.3968    0.1551 C.2       1 <0>        -0.1883
      7 C5          4.7606    9.8482    0.1682 C.2       1 <0>        -0.0442
      8 C6          4.6105    8.4502    0.1656 C.ar      1 <0>        -0.0887
      9 C7          3.4079    7.6964    0.1719 C.ar      1 <0>        -0.0910
     10 C8          3.4469    6.3234    0.1726 C.ar      1 <0>         0.1669
     11 C9          4.6590    5.6323    0.1560 C.ar      1 <0>        -0.0757
     12 C10         5.8359    6.3312    0.1441 C.ar      1 <0>        -0.0617
     13 C11         5.8163    7.7099    0.1488 C.ar      1 <0>        -0.1161
     14 S1          7.0713    8.9659    0.1378 S.3       1 <0>         0.1158
     15 N1          2.2453    5.6022    0.1847 N.am      1 <0>        -0.6934
     16 C12         2.1739    4.4224    0.8323 C.2       1 <0>         0.7089
     17 O3          3.1217    4.0284    1.4842 O.2       1 <0>        -0.5526
     18 N2          1.0520    3.6793    0.7574 N.am      1 <0>        -0.6958
     19 C13         0.9363    2.5086    1.5152 C.ar      1 <0>         0.2308
     20 C14         1.5451    2.4227    2.7604 C.ar      1 <0>        -0.1463
     21 C15         1.4286    1.2660    3.5060 C.ar      1 <0>         0.0099
     22 C16         0.7071    0.1940    3.0137 C.ar      1 <0>        -0.6827
     23 C17         0.0997    0.2764    1.7742 C.ar      1 <0>        -0.0027
     24 C18         0.2120    1.4304    1.0238 C.ar      1 <0>        -0.1696
     25 S2          0.5618   -1.2804    3.9676 S.o2      1 <0>         2.6375
     26 O4          0.2938   -2.3325    3.0509 O.2       1 <0>        -0.9875
     27 O5          1.6751   -1.3043    4.8503 O.2       1 <0>        -0.9520
     28 N3         -0.7884   -1.1208    4.9130 N.pl3     1 <0>        -1.1630
     29 H1          9.7172   14.8745    0.1261 H         1 <0>         0.0849
     30 H2          9.9149   13.3361   -0.7799 H         1 <0>         0.0694
     31 H3          9.9366   13.3298    1.0162 H         1 <0>         0.0695
     32 H4          7.5548   14.0539    1.0475 H         1 <0>         0.0755
     33 H5          7.5331   14.0602   -0.7486 H         1 <0>         0.0755
     34 H6          3.8888   10.4856    0.1811 H         1 <0>         0.1500
     35 H7          2.4556    8.2058    0.1802 H         1 <0>         0.1354
     36 H8          4.6685    4.5524    0.1520 H         1 <0>         0.1496
     37 H9          6.7782    5.8037    0.1315 H         1 <0>         0.1409
     38 H10         1.3604    5.9991   -0.3344 H         1 <0>         0.4348
     39 H11         0.2273    3.9931    0.1006 H         1 <0>         0.4375
     40 H12         2.1053    3.2611    3.1472 H         1 <0>         0.1470
     41 H13         1.9018    1.1985    4.4745 H         1 <0>         0.1460
     42 H14        -0.4629   -0.5627    1.3923 H         1 <0>         0.1455
     43 H15        -0.2629    1.4943    0.0559 H         1 <0>         0.1379
     44 H16        -0.9152   -2.0248    5.5268 H         1 <0>         0.4137
     45 H17        -1.6716   -0.9865    4.2712 H         1 <0>         0.4082
@<TRIPOS>BOND
     1    1    2 1
     2    1   29 1
     3    1   30 1
     4    1   31 1
     5    2    3 1
     6    2   32 1
     7    2   33 1
     8    3    4 1
     9    4    5 2
    10    4    6 1
    11    6   14 1
    12    6    7 2
    13    7    8 1
    14    7   34 1
    15    8   13 ar
    16    8    9 ar
    17    9   10 ar
    18    9   35 1
    19   10   11 ar
    20   10   15 1
    21   11   12 ar
    22   11   36 1
    23   12   13 ar
    24   12   37 1
    25   13   14 1
    26   15   16 am
    27   15   38 1
    28   16   17 2
    29   16   18 am
    30   18   19 1
    31   18   39 1
    32   19   24 ar
    33   19   20 ar
    34   20   21 ar
    35   20   40 1
    36   21   22 ar
    37   21   41 1
    38   22   23 ar
    39   22   25 1
    40   23   24 ar
    41   23   42 1
    42   24   43 1
    43   25   26 2
    44   25   27 2
    45   25   28 1
    46   28   44 1
    47   28   45 1
@<TRIPOS>MOLECULE
ZINC40782419
   39    40     0     0     0
SMALL
USER_CHARGES

@<TRIPOS>ATOM
      1 C1          0.2627    1.8773   -0.0427 C.3       1 <0>        -0.1584
      2 C2          0.0644    0.3684    0.1152 C.3       1 <0>         0.1622
      3 H1          0.4555   -0.1434   -0.7640 H         1 <0>         0.1033
      4 C3         -1.4276    0.0627    0.2617 C.3       1 <0>         0.0482
      5 O1         -1.9659    0.8246    1.3443 O.3       1 <0>        -0.3889
      6 C4         -3.3612    0.6117    1.5675 C.3       1 <0>         0.0303
      7 N1          0.7774   -0.0957    1.3079 N.pl3     1 <0>        -0.7077
      8 C5          2.1274   -0.4159    1.2298 C.ar      1 <0>         0.4102
      9 C6          2.8161   -0.8647    2.3586 C.ar      1 <0>         0.0055
     10 C7          4.1709   -1.1725    2.2248 C.ar      1 <0>         0.3840
     11 N2          4.7506   -1.0276    1.0352 N.ar      1 <0>        -0.5614
     12 C8          4.0642   -0.6009   -0.0051 C.ar      1 <0>         0.3241
     13 N3          2.7826   -0.3048    0.0769 N.ar      1 <0>        -0.5670
     14 N4          4.9038   -1.6231    3.3172 N.pl3     1 <0>        -0.6585
     15 C9          6.2838   -1.8132    3.2025 C.ar      1 <0>         0.1903
     16 C10         6.9007   -2.8593    3.8769 C.ar      1 <0>        -0.1528
     17 C11         8.2643   -3.0448    3.7612 C.ar      1 <0>        -0.0628
     18 C12         9.0159   -2.1898    2.9751 C.ar      1 <0>        -0.1212
     19 C13         8.4044   -1.1470    2.3023 C.ar      1 <0>        -0.0634
     20 C14         7.0404   -0.9598    2.4094 C.ar      1 <0>        -0.1106
     21 I1         11.0844   -2.4743    2.8038 I         1 <0>        -0.0482
     22 N5          2.1638   -1.0022    3.5944 N.pl3     1 <0>        -0.8759
     23 H2          1.3257    2.0950   -0.1470 H         1 <0>         0.0610
     24 H3         -0.2677    2.2226   -0.9301 H         1 <0>         0.0621
     25 H4         -0.1284    2.3891    0.8366 H         1 <0>         0.0623
     26 H5         -1.9448    0.3266   -0.6608 H         1 <0>         0.0670
     27 H6         -1.5627   -1.0000    0.4628 H         1 <0>         0.0553
     28 H7         -3.9185    0.8870    0.6721 H         1 <0>         0.0435
     29 H8         -3.5364   -0.4396    1.7957 H         1 <0>         0.0415
     30 H9         -3.6929    1.2255    2.4050 H         1 <0>         0.0875
     31 H10         0.3071   -0.1794    2.1522 H         1 <0>         0.4068
     32 H11         4.5661   -0.4945   -0.9554 H         1 <0>         0.1961
     33 H12         4.4574   -1.8055    4.1588 H         1 <0>         0.4139
     34 H13         6.3146   -3.5267    4.4913 H         1 <0>         0.1295
     35 H14         8.7445   -3.8579    4.2852 H         1 <0>         0.1304
     36 H15         8.9939   -0.4810    1.6897 H         1 <0>         0.1304
     37 H16         6.5630   -0.1480    1.8807 H         1 <0>         0.1410
     38 H17         1.2218   -0.7842    3.6724 H         1 <0>         0.3966
     39 H18         2.6551   -1.3152    4.3700 H         1 <0>         0.3939
@<TRIPOS>BOND
     1    1    2 1
     2    1   23 1
     3    1   24 1
     4    1   25 1
     5    2    3 1
     6    2    4 1
     7    2    7 1
     8    4    5 1
     9    4   26 1
    10    4   27 1
    11    5    6 1
    12    6   28 1
    13    6   29 1
    14    6   30 1
    15    7    8 1
    16    7   31 1
    17    8   13 ar
    18    8    9 ar
    19    9   10 ar
    20    9   22 1
    21   10   11 ar
    22   10   14 1
    23   11   12 ar
    24   12   13 ar
    25   12   32 1
    26   14   15 1
    27   14   33 1
    28   15   20 ar
    29   15   16 ar
    30   16   17 ar
    31   16   34 1
    32   17   18 ar
    33   17   35 1
    34   18   19 ar
    35   18   21 1
    36   19   20 ar
    37   19   36 1
    38   20   37 1
    39   22   38 1
    40   22   39 1
@<TRIPOS>MOLECULE
ZINC58834897
   44    48     0     0     0
SMALL
USER_CHARGES

@<TRIPOS>ATOM
      1 C1         -0.0166    1.3755    0.0096 C.ar      1 <0>        -0.0983
      2 C2          1.1696    2.0943    0.0021 C.ar      1 <0>        -0.1237
      3 C3          2.3819    1.4417   -0.0134 C.ar      1 <0>        -0.0655
      4 C4          2.4181    0.0450   -0.0212 C.ar      1 <0>         0.0562
      5 C5          1.2138   -0.6778   -0.0131 C.ar      1 <0>         0.0566
      6 C6          0.0021   -0.0041    0.0020 C.ar      1 <0>        -0.1109
      7 N1          1.5678   -2.0172   -0.0233 N.pl3     1 <0>        -0.5813
      8 H1          0.9598   -2.7730   -0.0214 H         1 <0>         0.4276
      9 C7          2.9328   -2.0751   -0.0369 C.2       1 <0>         0.2624
     10 N2          3.4295   -0.8623   -0.0356 N.2       1 <0>        -0.4919
     11 S1          3.8834   -3.5586   -0.0531 S.3       1 <0>         0.0288
     12 C8          5.6021   -2.9784   -0.0671 C.3       1 <0>        -0.0104
     13 C9          6.5323   -4.1640   -0.0817 C.2       1 <0>         0.2209
     14 N3          7.0155   -4.7809    0.9620 N.2       1 <0>        -0.2531
     15 N4          7.7736   -5.7474    0.5811 N.2       1 <0>        -0.2419
     16 C10         7.8084   -5.7908   -0.7229 C.2       1 <0>         0.1515
     17 N5          7.0174   -4.7906   -1.1808 N.pl3     1 <0>        -0.2970
     18 N6          6.7630   -4.4759   -2.4855 N.3       1 <0>        -0.5855
     19 C11         8.5808   -6.7746   -1.5635 C.3       1 <0>        -0.0188
     20 S2          7.5451   -8.2248   -1.9020 S.3       1 <0>         0.0245
     21 C12         8.5763   -9.2662   -2.8802 C.2       1 <0>         0.2578
     22 N7          8.2129  -10.4844   -3.3810 N.pl3     1 <0>        -0.5795
     23 H2          7.3553  -10.9222   -3.2635 H         1 <0>         0.4284
     24 C13         9.2972  -10.9774   -4.0885 C.ar      1 <0>         0.0583
     25 C14         9.5286  -12.1422   -4.8041 C.ar      1 <0>        -0.1110
     26 C15        10.7507  -12.3435   -5.4120 C.ar      1 <0>        -0.0958
     27 C16        11.7509  -11.3877   -5.3123 C.ar      1 <0>        -0.1228
     28 C17        11.5385  -10.2252   -4.6056 C.ar      1 <0>        -0.0648
     29 C18        10.3064  -10.0061   -3.9842 C.ar      1 <0>         0.0547
     30 N8          9.8046   -8.9854   -3.2409 N.2       1 <0>        -0.4905
     31 H3         -0.9611    1.8992    0.0259 H         1 <0>         0.1330
     32 H4          1.1421    3.1739    0.0082 H         1 <0>         0.1325
     33 H5          3.3018    2.0076   -0.0198 H         1 <0>         0.1312
     34 H6         -0.9251   -0.5579    0.0082 H         1 <0>         0.1251
     35 H7          5.7733   -2.3712   -0.9560 H         1 <0>         0.1241
     36 H8          5.7907   -2.3796    0.8239 H         1 <0>         0.1344
     37 H9          7.4369   -3.8113   -2.8351 H         1 <0>         0.3720
     38 H10         6.7414   -5.3052   -3.0599 H         1 <0>         0.3816
     39 H11         8.8655   -6.3037   -2.5044 H         1 <0>         0.1141
     40 H12         9.4773   -7.0856   -1.0270 H         1 <0>         0.1413
     41 H13         8.7540  -12.8905   -4.8853 H         1 <0>         0.1262
     42 H14        10.9299  -13.2513   -5.9689 H         1 <0>         0.1342
     43 H15        12.7035  -11.5568   -5.7922 H         1 <0>         0.1336
     44 H16        12.3216   -9.4850   -4.5323 H         1 <0>         0.1317
@<TRIPOS>BOND
     1    1    6 ar
     2    1    2 ar
     3    1   31 1
     4    2    3 ar
     5    2   32 1
     6    3    4 ar
     7    3   33 1
     8    4   10 1
     9    4    5 ar
    10    5    6 ar
    11    5    7 1
    12    6   34 1
    13    7    8 1
    14    7    9 1
    15    9   10 2
    16    9   11 1
    17   11   12 1
    18   12   13 1
    19   12   35 1
    20   12   36 1
    21   13   17 1
    22   13   14 2
    23   14   15 1
    24   15   16 2
    25   16   17 1
    26   16   19 1
    27   17   18 1
    28   18   37 1
    29   18   38 1
    30   19   20 1
    31   19   39 1
    32   19   40 1
    33   20   21 1
    34   21   30 2
    35   21   22 1
    36   22   23 1
    37   22   24 1
    38   24   29 ar
    39   24   25 ar
    40   25   26 ar
    41   25   41 1
    42   26   27 ar
    43   26   42 1
    44   27   28 ar
    45   27   43 1
    46   28   29 ar
    47   28   44 1
    48   29   30 1
@<TRIPOS>MOLECULE
ZINC67104135
   47    47     0     0     0
SMALL
USER_CHARGES

@<TRIPOS>ATOM
      1 C1         -1.2637    1.1838    0.1811 C.3       1 <0>        -0.1206
      2 C2         -0.5836   -0.1576    0.0842 C.ar      1 <0>        -0.0908
      3 C3         -0.5688   -0.8399   -1.1167 C.ar      1 <0>        -0.0968
      4 C4          0.0552   -2.0703   -1.2070 C.ar      1 <0>        -0.0971
      5 C5          0.6668   -2.6223   -0.0950 C.ar      1 <0>        -0.0802
      6 C6          0.6552   -1.9444    1.1091 C.ar      1 <0>        -0.0880
      7 C7          0.0336   -0.7059    1.2008 C.ar      1 <0>         0.1432
      8 N1          0.0251   -0.0142    2.4171 N.am      1 <0>        -0.6630
      9 C8         -0.0564   -0.6936    3.5782 C.2       1 <0>         0.5116
     10 O1         -0.0401   -1.9064    3.5736 O.2       1 <0>        -0.5146
     11 C9         -0.1678    0.0535    4.8822 C.3       1 <0>         0.1204
     12 N2         -0.2414   -0.9037    5.9887 N.am      1 <0>        -0.7349
     13 C10        -0.3460   -0.4607    7.2573 C.2       1 <0>         0.7185
     14 O2         -0.3793    0.7335    7.4833 O.2       1 <0>        -0.5685
     15 N3         -0.4137   -1.3413    8.2752 N.am      1 <0>        -0.5287
     16 N4         -0.3753   -2.7174    8.0148 N.am      1 <0>        -0.5350
     17 C11        -0.4430   -3.5980    9.0328 C.2       1 <0>         0.5158
     18 O3         -0.5371   -3.1993   10.1743 O.2       1 <0>        -0.5281
     19 C12        -0.4017   -5.0782    8.7526 C.3       1 <0>        -0.1332
     20 C13        -0.4942   -5.8495   10.0707 C.3       1 <0>        -0.1004
     21 C14        -0.4523   -7.3523    9.7863 C.3       1 <0>        -0.0977
     22 C15         0.9099   -7.7218    9.1959 C.3       1 <0>        -0.1530
     23 C16        -0.6698   -8.1242   11.0893 C.3       1 <0>        -0.1490
     24 Br1         1.5184   -4.3058   -0.2233 Br        1 <0>        -0.0425
     25 H1         -0.5480    1.9717   -0.0536 H         1 <0>         0.0780
     26 H2         -2.0922    1.2230   -0.5261 H         1 <0>         0.0772
     27 H3         -1.6426    1.3268    1.1930 H         1 <0>         0.0674
     28 H4         -1.0455   -0.4119   -1.9861 H         1 <0>         0.1383
     29 H5          0.0650   -2.6019   -2.1470 H         1 <0>         0.1361
     30 H6          1.1326   -2.3753    1.9767 H         1 <0>         0.1505
     31 H7          0.0778    0.9544    2.4245 H         1 <0>         0.4181
     32 H8          0.7065    0.6915    5.0112 H         1 <0>         0.1090
     33 H9         -1.0679    0.6682    4.8730 H         1 <0>         0.1092
     34 H10        -0.2148   -1.8565    5.8084 H         1 <0>         0.4040
     35 H11        -0.4890   -1.0224    9.1882 H         1 <0>         0.4463
     36 H12        -0.3000   -3.0363    7.1018 H         1 <0>         0.4214
     37 H13        -1.2411   -5.3504    8.1127 H         1 <0>         0.1014
     38 H14         0.5334   -5.3271    8.2509 H         1 <0>         0.1031
     39 H15         0.3451   -5.5773   10.7107 H         1 <0>         0.0731
     40 H16        -1.4293   -5.6006   10.5725 H         1 <0>         0.0728
     41 H17        -1.2381   -7.6097    9.0761 H         1 <0>         0.0718
     42 H18         0.9398   -8.7923    8.9932 H         1 <0>         0.0559
     43 H19         1.0648   -7.1718    8.2676 H         1 <0>         0.0555
     44 H20         1.6957   -7.4644    9.9061 H         1 <0>         0.0561
     45 H21        -1.6403   -7.8609   11.5099 H         1 <0>         0.0556
     46 H22        -0.6399   -9.1948   10.8867 H         1 <0>         0.0559
     47 H23         0.1160   -7.8668   11.7995 H         1 <0>         0.0558
@<TRIPOS>BOND
     1    1    2 1
     2    1   25 1
     3    1   26 1
     4    1   27 1
     5    2    7 ar
     6    2    3 ar
     7    3    4 ar
     8    3   28 1
     9    4    5 ar
    10    4   29 1
    11    5    6 ar
    12    5   24 1
    13    6    7 ar
    14    6   30 1
    15    7    8 1
    16    8    9 am
    17    8   31 1
    18    9   10 2
    19    9   11 1
    20   11   12 1
    21   11   32 1
    22   11   33 1
    23   12   13 am
    24   12   34 1
    25   13   14 2
    26   13   15 am
    27   15   16 1
    28   15   35 1
    29   16   17 am
    30   16   36 1
    31   17   18 2
    32   17   19 1
    33   19   20 1
    34   19   37 1
    35   19   38 1
    36   20   21 1
    37   20   39 1
    38   20   40 1
    39   21   22 1
    40   21   23 1
    41   21   41 1
    42   22   42 1
    43   22   43 1
    44   22   44 1
    45   23   45 1
    46   23   46 1
    47   23   47 1
@<TRIPOS>MOLECULE
ZINC19242339
   44    45     0     0     0
SMALL
USER_CHARGES
[2-[[2-[(2-bromophenyl)amino]-2-oxo-ethyl]amino]-2-oxo-ethyl] 2-amino-3-methyl-benzoate
@<TRIPOS>ATOM
      1 C1          3.5400   -0.6250   -0.1085 C.3       1 <0>        -0.1063
      2 C2          2.2592    0.1687   -0.0893 C.ar      1 <0>        -0.1929
      3 C3          1.0435   -0.4843   -0.0902 C.ar      1 <0>        -0.0264
      4 C4         -0.1403    0.2359   -0.0730 C.ar      1 <0>        -0.2017
      5 C5         -0.1172    1.6132   -0.0544 C.ar      1 <0>        -0.0098
      6 C6          1.1056    2.2900   -0.0527 C.ar      1 <0>        -0.2342
      7 C7          2.3034    1.5571   -0.0701 C.ar      1 <0>         0.3031
      8 N1          3.5252    2.2165   -0.0682 N.pl3     1 <0>        -0.8746
      9 C8          1.1378    3.7625   -0.0333 C.2       1 <0>         0.5320
     10 O1          2.1984    4.3483   -0.1268 O.2       1 <0>        -0.5265
     11 O2         -0.0089    4.4600    0.0883 O.3       1 <0>        -0.3236
     12 C9          0.0984    5.9080    0.1001 C.3       1 <0>         0.0486
     13 C10        -1.2747    6.5123    0.2421 C.2       1 <0>         0.5222
     14 O3         -2.2480    5.7935    0.3252 O.2       1 <0>        -0.5172
     15 N2         -1.4213    7.8517    0.2768 N.am      1 <0>        -0.7300
     16 C11        -2.7562    8.4392    0.4148 C.3       1 <0>         0.1057
     17 C12        -2.6448    9.9420    0.4271 C.2       1 <0>         0.5173
     18 O4         -1.5573   10.4703    0.3300 O.2       1 <0>        -0.5151
     19 N3         -3.7535   10.6990    0.5458 N.am      1 <0>        -0.6787
     20 C13        -3.6646   12.0918    0.4404 C.ar      1 <0>         0.1817
     21 C14        -2.6200   12.6707   -0.2680 C.ar      1 <0>        -0.1286
     22 C15        -2.5371   14.0453   -0.3735 C.ar      1 <0>        -0.0808
     23 C16        -3.4878   14.8458    0.2331 C.ar      1 <0>        -0.1323
     24 C17        -4.5267   14.2733    0.9433 C.ar      1 <0>        -0.0686
     25 C18        -4.6180   12.8983    1.0492 C.ar      1 <0>        -0.1271
     26 Br1        -6.0385   12.1159    2.0218 Br        1 <0>        -0.0422
     27 H1          3.3053   -1.6996   -0.1221 H         1 <0>         0.0701
     28 H2          4.1305   -0.3900    0.7893 H         1 <0>         0.0642
     29 H3          4.1192   -0.3648   -1.0068 H         1 <0>         0.0644
     30 H4          1.0145   -1.5638   -0.1048 H         1 <0>         0.1265
     31 H5         -1.0862   -0.2854   -0.0740 H         1 <0>         0.1271
     32 H6         -1.0430    2.1694   -0.0456 H         1 <0>         0.1364
     33 H7          3.5568    3.3159   -0.0530 H         1 <0>         0.4361
     34 H8          4.4616    1.6395   -0.0819 H         1 <0>         0.4119
     35 H9          0.7266    6.2222    0.9466 H         1 <0>         0.1069
     36 H10         0.5538    6.2496   -0.8411 H         1 <0>         0.1071
     37 H11        -0.5385    8.5037    0.2015 H         1 <0>         0.4394
     38 H12        -3.3844    8.1250   -0.4318 H         1 <0>         0.1079
     39 H13        -3.2117    8.0976    1.3560 H         1 <0>         0.1067
     40 H14        -4.7284   10.2222    0.7255 H         1 <0>         0.4418
     41 H15        -1.8749   12.0466   -0.7389 H         1 <0>         0.1533
     42 H16        -1.7264   14.4958   -0.9270 H         1 <0>         0.1342
     43 H17        -3.4183   15.9205    0.1521 H         1 <0>         0.1343
     44 H18        -5.2674   14.9012    1.4162 H         1 <0>         0.1375
@<TRIPOS>BOND
     1    1    2 1
     2    1   27 1
     3    1   28 1
     4    1   29 1
     5    2    7 ar
     6    2    3 ar
     7    3    4 ar
     8    3   30 1
     9    4    5 ar
    10    4   31 1
    11    5    6 ar
    12    5   32 1
    13    6    7 ar
    14    6    9 1
    15    7    8 1
    16    8   33 1
    17    8   34 1
    18    9   10 2
    19    9   11 1
    20   11   12 1
    21   12   13 1
    22   12   35 1
    23   12   36 1
    24   13   14 2
    25   13   15 am
    26   15   16 1
    27   15   37 1
    28   16   17 1
    29   16   38 1
    30   16   39 1
    31   17   18 2
    32   17   19 am
    33   19   20 1
    34   19   40 1
    35   20   25 ar
    36   20   21 ar
    37   21   22 ar
    38   21   41 1
    39   22   23 ar
    40   22   42 1
    41   23   24 ar
    42   23   43 1
    43   24   25 ar
    44   24   44 1
    45   25   26 1
@<TRIPOS>MOLECULE
ZINC39276151
   51    54     0     0     0
SMALL
USER_CHARGES

@<TRIPOS>ATOM
      1 C1         -0.0417    1.5074    0.0176 C.3       1 <0>        -0.1585
      2 C2         -0.0215   -0.0223   -0.0020 C.3       1 <0>        -0.0347
      3 H1         -1.0407   -0.3991    0.0829 H         1 <0>         0.1011
      4 C3          0.5826   -0.4988   -1.2988 C.ar      1 <0>        -0.1838
      5 C4          0.2585    0.1804   -2.4693 C.ar      1 <0>         0.1671
      6 C5          0.7851   -0.2272   -3.6833 C.ar      1 <0>        -0.1922
      7 C6          1.6394   -1.3186   -3.7348 C.ar      1 <0>         0.1601
      8 C7          1.9649   -1.9944   -2.5706 C.ar      1 <0>        -0.1695
      9 C8          1.4395   -1.5830   -1.3503 C.ar      1 <0>         0.1584
     10 O1          1.8020   -2.2650   -0.2295 O.3       1 <0>        -0.2955
     11 C9          1.1356   -1.9911    0.9097 C.2       1 <0>         0.4931
     12 O2          0.8135   -2.8645    1.6800 O.2       1 <0>        -0.4062
     13 C10         0.8106   -0.5355    1.1772 C.3       1 <0>        -0.1131
     14 H2          0.2369   -0.4494    2.1000 H         1 <0>         0.1293
     15 C11         2.1040    0.2739    1.2912 C.3       1 <0>        -0.1367
     16 C12         2.8575   -0.1542    2.5241 C.2       1 <0>         0.5032
     17 O3          2.4047   -1.0214    3.2410 O.2       1 <0>        -0.5229
     18 N1          4.0346    0.4265    2.8300 N.am      1 <0>        -0.7305
     19 C13         4.7671    0.0103    4.0286 C.3       1 <0>         0.1228
     20 C14         6.0605    0.8197    4.1426 C.3       1 <0>        -0.0531
     21 C15         6.8140    0.3916    5.3754 C.2       1 <0>        -0.1701
     22 C16         7.7407   -0.7380    5.4819 C.ar      1 <0>        -0.0904
     23 C17         8.1997   -1.7036    4.5840 C.ar      1 <0>        -0.0605
     24 C18         9.0967   -2.6582    5.0099 C.ar      1 <0>        -0.0578
     25 C19         9.5442   -2.6639    6.3249 C.ar      1 <0>        -0.0896
     26 C20         9.1002   -1.7177    7.2222 C.ar      1 <0>        -0.1148
     27 C21         8.1949   -0.7445    6.8133 C.ar      1 <0>         0.0993
     28 N2          7.5816    0.3083    7.4564 N.pl3     1 <0>        -0.5915
     29 C22         6.7678    0.9765    6.5828 C.2       1 <0>         0.0686
     30 Cl1         9.6706   -3.8610    3.8974 Cl        1 <0>        -0.0706
     31 O4          2.1554   -1.7242   -4.9248 O.3       1 <0>        -0.4893
     32 O5         -0.5795    1.2491   -2.4207 O.3       1 <0>        -0.4855
     33 H3          0.9128    1.8881   -0.3458 H         1 <0>         0.0593
     34 H4         -0.8451    1.8684   -0.6245 H         1 <0>         0.0917
     35 H5         -0.2072    1.8555    1.0372 H         1 <0>         0.0661
     36 H6          0.5308    0.3038   -4.5887 H         1 <0>         0.1436
     37 H7          2.6294   -2.8449   -2.6104 H         1 <0>         0.1471
     38 H8          2.7207    0.0994    0.4096 H         1 <0>         0.1009
     39 H9          1.8637    1.3347    1.3624 H         1 <0>         0.1190
     40 H10         4.3968    1.1200    2.2567 H         1 <0>         0.4010
     41 H11         4.1504    0.1848    4.9102 H         1 <0>         0.0698
     42 H12         5.0075   -1.0505    3.9574 H         1 <0>         0.0698
     43 H13         6.6772    0.6452    3.2609 H         1 <0>         0.0782
     44 H14         5.8202    1.8805    4.2137 H         1 <0>         0.0788
     45 H15         7.8531   -1.7022    3.5611 H         1 <0>         0.1321
     46 H16        10.2471   -3.4180    6.6471 H         1 <0>         0.1373
     47 H17         9.4551   -1.7314    8.2421 H         1 <0>         0.1307
     48 H18         6.1741    1.8444    6.8288 H         1 <0>         0.1741
     49 H19         7.7104    0.5430    8.3887 H         1 <0>         0.4199
     50 H20         2.9969   -1.3054   -5.1518 H         1 <0>         0.3987
     51 H21        -0.1267    2.1022   -2.3739 H         1 <0>         0.3958
@<TRIPOS>BOND
     1    1    2 1
     2    1   33 1
     3    1   34 1
     4    1   35 1
     5    2    3 1
     6    2   13 1
     7    2    4 1
     8    4    9 ar
     9    4    5 ar
    10    5    6 ar
    11    5   32 1
    12    6    7 ar
    13    6   36 1
    14    7    8 ar
    15    7   31 1
    16    8    9 ar
    17    8   37 1
    18    9   10 1
    19   10   11 1
    20   11   12 2
    21   11   13 1
    22   13   14 1
    23   13   15 1
    24   15   16 1
    25   15   38 1
    26   15   39 1
    27   16   17 2
    28   16   18 am
    29   18   19 1
    30   18   40 1
    31   19   20 1
    32   19   41 1
    33   19   42 1
    34   20   43 1
    35   20   44 1
    36   20   21 1
    37   21   22 1
    38   21   29 2
    39   22   23 ar
    40   22   27 ar
    41   23   24 ar
    42   23   45 1
    43   24   25 ar
    44   24   30 1
    45   25   26 ar
    46   25   46 1
    47   26   27 ar
    48   26   47 1
    49   27   28 1
    50   28   49 1
    51   28   29 1
    52   29   48 1
    53   31   50 1
    54   32   51 1
@<TRIPOS>MOLECULE
ZINC48447523
   51    53     0     0     0
SMALL
USER_CHARGES

@<TRIPOS>ATOM
      1 C1          1.1311    2.3368   -0.0839 C.3       1 <0>        -0.1599
      2 C2          1.0214    0.8761   -0.5257 C.3       1 <0>         0.2045
      3 H1          1.6830    0.7026   -1.3744 H         1 <0>         0.0996
      4 C3          1.4202   -0.0249    0.6145 C.ar      1 <0>        -0.1114
      5 C4          0.5157   -0.3030    1.6229 C.ar      1 <0>        -0.0924
      6 C5          0.8781   -1.1284    2.6693 C.ar      1 <0>        -0.1156
      7 C6          2.1522   -1.6792    2.7081 C.ar      1 <0>         0.1689
      8 C7          3.0582   -1.3980    1.6939 C.ar      1 <0>        -0.1424
      9 C8          2.6878   -0.5764    0.6473 C.ar      1 <0>        -0.0829
     10 N1          2.5227   -2.5155    3.7672 N.am      1 <0>        -0.6862
     11 C9          1.6052   -3.3138    4.3482 C.2       1 <0>         0.7081
     12 O1          0.4796   -3.3778    3.8930 O.2       1 <0>        -0.5681
     13 N2          1.9354   -4.0411    5.4337 N.am      1 <0>        -0.7121
     14 C10         0.9382   -4.9088    6.0652 C.3       1 <0>         0.0955
     15 C11         0.8571   -4.8964    7.5930 C.3       1 <0>        -0.1928
     16 C12         1.4506   -6.1061    6.8682 C.3       1 <0>        -0.1887
     17 N3         -0.3605    0.5866   -0.9167 N.am      1 <0>        -0.7341
     18 C13        -0.7785    0.8617   -2.1681 C.2       1 <0>         0.7052
     19 O2         -0.0087    1.3502   -2.9726 O.2       1 <0>        -0.5687
     20 N4         -2.0498    0.5954   -2.5277 N.am      1 <0>        -0.6837
     21 C14        -2.4552    0.7792   -3.8566 C.ar      1 <0>         0.1606
     22 C15        -3.7519    1.1890   -4.1365 C.ar      1 <0>        -0.1167
     23 C16        -4.1518    1.3707   -5.4461 C.ar      1 <0>        -0.1604
     24 C17        -3.2588    1.1442   -6.4823 C.ar      1 <0>         0.0788
     25 C18        -1.9613    0.7337   -6.2040 C.ar      1 <0>         0.0922
     26 C19        -1.5588    0.5571   -4.8930 C.ar      1 <0>        -0.1190
     27 F1         -1.0915    0.5121   -7.2137 F         1 <0>        -0.1277
     28 O3         -3.6536    1.3235   -7.7716 O.3       1 <0>        -0.3097
     29 C20        -5.0020    1.7461   -7.9844 C.3       1 <0>         0.0257
     30 H2          2.1592    2.5522    0.2070 H         1 <0>         0.0700
     31 H3          0.8427    2.9885   -0.9086 H         1 <0>         0.0664
     32 H4          0.4694    2.5103    0.7648 H         1 <0>         0.0588
     33 H5         -0.4750    0.1260    1.5924 H         1 <0>         0.1230
     34 H6          0.1714   -1.3449    3.4568 H         1 <0>         0.1381
     35 H7          4.0500   -1.8246    1.7214 H         1 <0>         0.1284
     36 H8          3.3905   -0.3608   -0.1440 H         1 <0>         0.1309
     37 H9          3.4397   -2.5207    4.0832 H         1 <0>         0.4081
     38 H10         2.8334   -3.9900    5.7969 H         1 <0>         0.3997
     39 H11         0.0072   -5.0347    5.5125 H         1 <0>         0.1412
     40 H12         1.5458   -4.2427    8.1283 H         1 <0>         0.0974
     41 H13        -0.1274   -5.0141    8.0458 H         1 <0>         0.1049
     42 H14         0.8565   -7.0196    6.8440 H         1 <0>         0.1063
     43 H15         2.5297   -6.2482    6.9266 H         1 <0>         0.0979
     44 H16        -0.9746    0.1969   -0.2749 H         1 <0>         0.3979
     45 H17        -2.6841    0.2764   -1.8668 H         1 <0>         0.4097
     46 H18        -4.4482    1.3654   -3.3300 H         1 <0>         0.1363
     47 H19        -5.1607    1.6892   -5.6631 H         1 <0>         0.1431
     48 H20        -0.5487    0.2426   -4.6756 H         1 <0>         0.1563
     49 H21        -5.1855    1.8507   -9.0538 H         1 <0>         0.1034
     50 H22        -5.6849    1.0048   -7.5694 H         1 <0>         0.0578
     51 H23        -5.1641    2.7051   -7.4925 H         1 <0>         0.0578
@<TRIPOS>BOND
     1    1    2 1
     2    1   30 1
     3    1   31 1
     4    1   32 1
     5    2    3 1
     6    2    4 1
     7    2   17 1
     8    4    9 ar
     9    4    5 ar
    10    5    6 ar
    11    5   33 1
    12    6    7 ar
    13    6   34 1
    14    7    8 ar
    15    7   10 1
    16    8    9 ar
    17    8   35 1
    18    9   36 1
    19   10   11 am
    20   10   37 1
    21   11   12 2
    22   11   13 am
    23   13   14 1
    24   13   38 1
    25   14   16 1
    26   14   15 1
    27   14   39 1
    28   15   16 1
    29   15   40 1
    30   15   41 1
    31   16   42 1
    32   16   43 1
    33   17   18 am
    34   17   44 1
    35   18   19 2
    36   18   20 am
    37   20   21 1
    38   20   45 1
    39   21   26 ar
    40   21   22 ar
    41   22   23 ar
    42   22   46 1
    43   23   24 ar
    44   23   47 1
    45   24   25 ar
    46   24   28 1
    47   25   26 ar
    48   25   27 1
    49   26   48 1
    50   28   29 1
    51   29   49 1
    52   29   50 1
    53   29   51 1
@<TRIPOS>MOLECULE
ZINC20115253
   41    42     0     0     0
SMALL
USER_CHARGES

@<TRIPOS>ATOM
      1 C1          0.0263    2.3284   -0.4720 C.3       1 <0>        -0.1742
      2 C2          0.2483    0.8154   -0.4220 C.3       1 <0>         0.0694
      3 H1          0.6731    0.4791   -1.3678 H         1 <0>         0.1069
      4 C3         -1.0691    0.1219   -0.1881 C.2       1 <0>         0.5308
      5 O1         -1.2539   -0.4992    0.8374 O.2       1 <0>        -0.4703
      6 N1         -2.0418    0.1916   -1.1184 N.am      1 <0>        -0.5820
      7 N2         -3.2665   -0.4531   -0.9010 N.2       1 <0>        -0.2183
      8 C4         -4.1655   -0.4713   -1.8370 C.2       1 <0>         0.1536
      9 C5         -5.5278   -1.0541   -1.5621 C.3       1 <0>        -0.0902
     10 C6         -3.8541    0.0780   -3.1687 C.ar      1 <0>        -0.1191
     11 C7         -2.8933   -0.5372   -3.9744 C.ar      1 <0>        -0.1136
     12 C8         -2.6064   -0.0163   -5.2234 C.ar      1 <0>         0.1019
     13 C9         -3.2712    1.1157   -5.6769 C.ar      1 <0>        -0.1134
     14 C10        -4.2227    1.7301   -4.8853 C.ar      1 <0>        -0.1285
     15 C11        -4.5245    1.2166   -3.6349 C.ar      1 <0>         0.1294
     16 O2         -5.4644    1.8187   -2.8600 O.3       1 <0>        -0.4874
     17 O3         -1.6709   -0.6137   -6.0089 O.3       1 <0>        -0.4956
     18 O4          1.1478    0.5008    0.6428 O.3       1 <0>        -0.2665
     19 C12         2.4685    0.4184    0.3311 C.ar      1 <0>         0.1433
     20 C13         2.9031    0.7495   -0.9438 C.ar      1 <0>        -0.1909
     21 C14         4.2455    0.6652   -1.2589 C.ar      1 <0>        -0.0614
     22 C15         5.1571    0.2507   -0.3038 C.ar      1 <0>        -0.0613
     23 C16         4.7265   -0.0802    0.9686 C.ar      1 <0>        -0.0618
     24 C17         3.3846    0.0083    1.2898 C.ar      1 <0>        -0.0554
     25 Cl1         2.8452   -0.4000    2.8885 Cl        1 <0>        -0.0340
     26 Cl2         6.8432    0.1452   -0.7031 Cl        1 <0>        -0.0537
     27 H2          0.9792    2.8300   -0.6411 H         1 <0>         0.0827
     28 H3         -0.6598    2.5683   -1.2842 H         1 <0>         0.0789
     29 H4         -0.3985    2.6647    0.4738 H         1 <0>         0.0821
     30 H5         -1.8940    0.6882   -1.9384 H         1 <0>         0.3862
     31 H6         -6.1902   -0.2711   -1.1930 H         1 <0>         0.0930
     32 H7         -5.9366   -1.4720   -2.4821 H         1 <0>         0.0814
     33 H8         -5.4420   -1.8407   -0.8125 H         1 <0>         0.0838
     34 H9         -2.3752   -1.4173   -3.6230 H         1 <0>         0.1353
     35 H10        -3.0431    1.5179   -6.6529 H         1 <0>         0.1395
     36 H11        -4.7354    2.6102   -5.2444 H         1 <0>         0.1416
     37 H12        -5.1270    2.5572   -2.3348 H         1 <0>         0.3947
     38 H13        -2.0264   -1.2975   -6.5930 H         1 <0>         0.3967
     39 H14         2.1923    1.0727   -1.6899 H         1 <0>         0.1478
     40 H15         4.5838    0.9226   -2.2517 H         1 <0>         0.1455
     41 H16         5.4394   -0.4038    1.7125 H         1 <0>         0.1531
@<TRIPOS>BOND
     1    1    2 1
     2    1   27 1
     3    1   28 1
     4    1   29 1
     5    2    3 1
     6    2    4 1
     7    2   18 1
     8    4    5 2
     9    4    6 am
    10    6    7 1
    11    6   30 1
    12    7    8 2
    13    8    9 1
    14    8   10 1
    15    9   31 1
    16    9   32 1
    17    9   33 1
    18   10   15 ar
    19   10   11 ar
    20   11   12 ar
    21   11   34 1
    22   12   13 ar
    23   12   17 1
    24   13   14 ar
    25   13   35 1
    26   14   15 ar
    27   14   36 1
    28   15   16 1
    29   16   37 1
    30   17   38 1
    31   18   19 1
    32   19   24 ar
    33   19   20 ar
    34   20   21 ar
    35   20   39 1
    36   21   22 ar
    37   21   40 1
    38   22   23 ar
    39   22   26 1
    40   23   24 ar
    41   23   41 1
    42   24   25 1
@<TRIPOS>MOLECULE
ZINC67279654
   49    51     0     0     0
SMALL
USER_CHARGES

@<TRIPOS>ATOM
      1 C1          0.1764    1.3683    0.6461 C.ar      1 <0>        -0.1322
      2 C2          1.1982    2.0825    0.0478 C.ar      1 <0>        -0.1001
      3 C3          2.2390    1.4181   -0.5739 C.ar      1 <0>        -0.1853
      4 C4          2.2602    0.0331   -0.5993 C.ar      1 <0>         0.0975
      5 C5          1.2313   -0.6870    0.0032 C.ar      1 <0>         0.1411
      6 C6          0.1905   -0.0135    0.6255 C.ar      1 <0>        -0.0969
      7 N1          1.2473   -2.0884   -0.0198 N.am      1 <0>        -0.6749
      8 C7          0.0940   -2.7773    0.0880 C.2       1 <0>         0.7045
      9 O1         -0.9684   -2.1860    0.1013 O.2       1 <0>        -0.5724
     10 N2          0.1182   -4.1216    0.1811 N.am      1 <0>        -0.7369
     11 C8         -1.1354   -4.8705    0.2983 C.3       1 <0>         0.1793
     12 C9         -0.8256   -6.3534    0.5127 C.3       1 <0>        -0.1136
     13 C10        -1.4122   -7.0252    1.7558 C.3       1 <0>        -0.1457
     14 C11         0.0858   -6.7224    1.6849 C.3       1 <0>        -0.1657
     15 C12        -0.7168   -7.1825   -0.7410 C.ar      1 <0>        -0.0427
     16 C13        -1.7572   -7.1984   -1.6513 C.ar      1 <0>        -0.0961
     17 C14        -1.6580   -7.9586   -2.8013 C.ar      1 <0>        -0.1063
     18 C15        -0.5174   -8.7038   -3.0414 C.ar      1 <0>        -0.0362
     19 C16         0.5235   -8.6876   -2.1300 C.ar      1 <0>        -0.1076
     20 C17         0.4255   -7.9225   -0.9831 C.ar      1 <0>        -0.1036
     21 Cl1        -0.3924   -9.6594   -4.4853 Cl        1 <0>        -0.0684
     22 O2          3.2828   -0.6218   -1.2113 O.3       1 <0>        -0.3221
     23 C18         4.3028    0.1816   -1.8082 C.3       1 <0>         0.0763
     24 C19         5.3597   -0.7246   -2.4428 C.3       1 <0>        -0.1427
     25 C20         6.4353    0.1226   -3.0723 C.2       1 <0>         0.5231
     26 O3          6.3636    1.3321   -3.0186 O.2       1 <0>        -0.5413
     27 N3          7.4770   -0.4638   -3.6949 N.am      1 <0>        -0.8528
     28 H1         -0.6323    1.8915    1.1345 H         1 <0>         0.1278
     29 H2          1.1829    3.1622    0.0660 H         1 <0>         0.1264
     30 H3          3.0355    1.9789   -1.0403 H         1 <0>         0.1336
     31 H4         -0.6086   -0.5689    1.0938 H         1 <0>         0.1541
     32 H5          2.0885   -2.5623   -0.1133 H         1 <0>         0.4097
     33 H6          0.9658   -4.5933    0.1705 H         1 <0>         0.3988
     34 H7         -1.7066   -4.4924    1.1462 H         1 <0>         0.0783
     35 H8         -1.7178   -4.7494   -0.6151 H         1 <0>         0.0743
     36 H9         -2.0190   -6.4107    2.4210 H         1 <0>         0.1047
     37 H10        -1.7199   -8.0671    1.6670 H         1 <0>         0.1024
     38 H11         0.7638   -7.5651    1.5495 H         1 <0>         0.1025
     39 H12         0.4646   -5.9087    2.3034 H         1 <0>         0.1030
     40 H13        -2.6477   -6.6169   -1.4636 H         1 <0>         0.1338
     41 H14        -2.4710   -7.9712   -3.5122 H         1 <0>         0.1353
     42 H15         1.4140   -9.2693   -2.3168 H         1 <0>         0.1343
     43 H16         1.2398   -7.9060   -0.2739 H         1 <0>         0.1329
     44 H17         3.8617    0.8178   -2.5754 H         1 <0>         0.0728
     45 H18         4.7690    0.8037   -1.0442 H         1 <0>         0.0729
     46 H19         5.8008   -1.3609   -1.6755 H         1 <0>         0.1071
     47 H20         4.8935   -1.3467   -3.2068 H         1 <0>         0.1071
     48 H21         7.5343   -1.4311   -3.7378 H         1 <0>         0.4041
     49 H22         8.1693    0.0816   -4.1001 H         1 <0>         0.4058
@<TRIPOS>BOND
     1    1    6 ar
     2    1    2 ar
     3    1   28 1
     4    2    3 ar
     5    2   29 1
     6    3    4 ar
     7    3   30 1
     8    4    5 ar
     9    4   22 1
    10    5    6 ar
    11    5    7 1
    12    6   31 1
    13    7    8 am
    14    7   32 1
    15    8    9 2
    16    8   10 am
    17   10   11 1
    18   10   33 1
    19   11   12 1
    20   11   34 1
    21   11   35 1
    22   12   14 1
    23   12   13 1
    24   12   15 1
    25   13   14 1
    26   13   36 1
    27   13   37 1
    28   14   38 1
    29   14   39 1
    30   15   20 ar
    31   15   16 ar
    32   16   17 ar
    33   16   40 1
    34   17   18 ar
    35   17   41 1
    36   18   19 ar
    37   18   21 1
    38   19   20 ar
    39   19   42 1
    40   20   43 1
    41   22   23 1
    42   23   24 1
    43   23   44 1
    44   23   45 1
    45   24   25 1
    46   24   46 1
    47   24   47 1
    48   25   26 2
    49   25   27 am
    50   27   48 1
    51   27   49 1
@<TRIPOS>MOLECULE
ZINC13637733
   42    44     0     0     0
SMALL
USER_CHARGES

@<TRIPOS>ATOM
      1 C1         -0.0353    1.3573    0.0329 C.ar      1 <0>        -0.0862
      2 C2          0.5847    1.0192    1.2222 C.ar      1 <0>        -0.1281
      3 C3          1.7929    0.3510    1.2073 C.ar      1 <0>        -0.0653
      4 C4          2.3860    0.0181   -0.0047 C.ar      1 <0>        -0.1403
      5 C5          1.7602    0.3594   -1.1977 C.ar      1 <0>        -0.0634
      6 C6          0.5521    1.0276   -1.1751 C.ar      1 <0>        -0.1279
      7 S1          3.9281   -0.8341   -0.0287 S.3       1 <0>        -0.0157
      8 C7          3.4794   -2.5315    0.1202 C.ar      1 <0>        -0.1212
      9 C8          2.1416   -2.9009    0.1153 C.ar      1 <0>        -0.1057
     10 C9          1.7924   -4.2328    0.2318 C.ar      1 <0>        -0.1118
     11 C10         2.7726   -5.2010    0.3539 C.ar      1 <0>        -0.1026
     12 C11         4.1076   -4.8422    0.3601 C.ar      1 <0>        -0.1029
     13 C12         4.4680   -3.5089    0.2376 C.ar      1 <0>         0.1609
     14 N1          5.8207   -3.1437    0.2379 N.am      1 <0>        -0.6604
     15 C13         6.7380   -3.9555   -0.3242 C.2       1 <0>         0.5366
     16 O1          6.4051   -5.0382   -0.7579 O.2       1 <0>        -0.5001
     17 C14         8.1773   -3.5179   -0.4140 C.3       1 <0>        -0.1446
     18 S2          9.1558   -4.8186   -1.2148 S.3       1 <0>         0.0882
     19 C15        10.7916   -4.1643   -1.2442 C.2       1 <0>         0.3909
     20 N2         11.0190   -2.9721   -0.7324 N.2       1 <0>        -0.5811
     21 C16        12.2465   -2.4404   -0.7353 C.2       1 <0>         0.4604
     22 C17        13.3038   -3.1516   -1.2855 C.2       1 <0>        -0.3995
     23 C18        13.0542   -4.4164   -1.8267 C.2       1 <0>         0.5438
     24 N3         11.7965   -4.9041   -1.7907 N.am      1 <0>        -0.6217
     25 O2         13.9599   -5.0706   -2.3192 O.2       1 <0>        -0.5467
     26 N4         12.4607   -1.1889   -0.1935 N.pl3     1 <0>        -0.8285
     27 H1         -0.9824    1.8759    0.0476 H         1 <0>         0.1298
     28 H2          0.1234    1.2786    2.1636 H         1 <0>         0.1311
     29 H3          2.2766    0.0877    2.1363 H         1 <0>         0.1322
     30 H4          2.2184    0.1026   -2.1414 H         1 <0>         0.1333
     31 H5          0.0650    1.2929   -2.1018 H         1 <0>         0.1315
     32 H6          1.3736   -2.1475    0.0209 H         1 <0>         0.1266
     33 H7          0.7509   -4.5187    0.2278 H         1 <0>         0.1278
     34 H8          2.4941   -6.2405    0.4449 H         1 <0>         0.1312
     35 H9          4.8702   -5.6010    0.4564 H         1 <0>         0.1464
     36 H10         6.0969   -2.3066    0.6426 H         1 <0>         0.4154
     37 H11         8.2425   -2.6012   -1.0001 H         1 <0>         0.1372
     38 H12         8.5651   -3.3366    0.5884 H         1 <0>         0.1366
     39 H13        14.3005   -2.7357   -1.2957 H         1 <0>         0.1495
     40 H14        11.7203   -0.6933    0.1902 H         1 <0>         0.4070
     41 H15        13.3515   -0.8050   -0.1966 H         1 <0>         0.4168
     42 H16        11.6069   -5.7816   -2.1581 H         1 <0>         0.4206
@<TRIPOS>BOND
     1    1    6 ar
     2    1    2 ar
     3    1   27 1
     4    2    3 ar
     5    2   28 1
     6    3    4 ar
     7    3   29 1
     8    4    5 ar
     9    4    7 1
    10    5    6 ar
    11    5   30 1
    12    6   31 1
    13    7    8 1
    14    8   13 ar
    15    8    9 ar
    16    9   10 ar
    17    9   32 1
    18   10   11 ar
    19   10   33 1
    20   11   12 ar
    21   11   34 1
    22   12   13 ar
    23   12   35 1
    24   13   14 1
    25   14   15 am
    26   14   36 1
    27   15   16 2
    28   15   17 1
    29   17   18 1
    30   17   37 1
    31   17   38 1
    32   18   19 1
    33   19   24 1
    34   19   20 2
    35   20   21 1
    36   21   22 2
    37   21   26 1
    38   22   23 1
    39   22   39 1
    40   23   24 am
    41   23   25 2
    42   24   42 1
    43   26   40 1
    44   26   41 1
@<TRIPOS>MOLECULE
ZINC36609065
   52    54     0     0     0
SMALL
USER_CHARGES

@<TRIPOS>ATOM
      1 C1          4.4737    2.2130    2.6073 C.ar      1 <0>        -0.1419
      2 C2          3.8878    2.6861    1.4475 C.ar      1 <0>        -0.0842
      3 C3          3.6205    1.8210    0.4045 C.ar      1 <0>        -0.1628
      4 C4          3.9411    0.4749    0.5213 C.ar      1 <0>         0.1735
      5 C5          4.5298    0.0030    1.6872 C.ar      1 <0>        -0.1342
      6 C6          4.7941    0.8731    2.7267 C.ar      1 <0>        -0.0844
      7 N1          3.6711   -0.4042   -0.5333 N.am      1 <0>        -0.5372
      8 C7          3.2894    0.0787   -1.7322 C.2       1 <0>         0.4772
      9 O1          3.0194   -0.6844   -2.6354 O.2       1 <0>        -0.5088
     10 C8          3.8034   -1.8496   -0.3342 C.3       1 <0>         0.1681
     11 H1          4.8553   -2.1294   -0.3907 H         1 <0>         0.1120
     12 C9          3.0319   -2.5768   -1.4051 C.ar      1 <0>        -0.1228
     13 C10         1.6845   -2.3078   -1.5928 C.ar      1 <0>         0.1753
     14 C11         0.9745   -2.9770   -2.5783 C.ar      1 <0>        -0.1691
     15 C12         1.6120   -3.9150   -3.3764 C.ar      1 <0>         0.1445
     16 C13         2.9597   -4.1834   -3.1893 C.ar      1 <0>        -0.1759
     17 C14         3.6706   -3.5110   -2.2066 C.ar      1 <0>         0.1477
     18 O2          4.9923   -3.7706   -2.0263 O.3       1 <0>        -0.4898
     19 O3          0.9161   -4.5714   -4.3415 O.3       1 <0>        -0.4952
     20 O4          1.0597   -1.3887   -0.8108 O.3       1 <0>        -0.4781
     21 C15         3.2565   -2.2223    1.0197 C.2       1 <0>         0.5118
     22 O5          2.4904   -1.4754    1.5909 O.2       1 <0>        -0.4913
     23 N2          3.6188   -3.3856    1.5959 N.am      1 <0>        -0.7263
     24 C16         3.0872   -3.7479    2.9121 C.3       1 <0>         0.1489
     25 C17         3.9480   -3.1085    4.0035 C.3       1 <0>        -0.1292
     26 C18         3.3928   -3.4869    5.3781 C.3       1 <0>        -0.1171
     27 C19         3.4160   -5.0085    5.5362 C.3       1 <0>        -0.1224
     28 C20         2.5551   -5.6479    4.4449 C.3       1 <0>        -0.1164
     29 C21         3.1103   -5.2695    3.0703 C.3       1 <0>        -0.1267
     30 H2          4.6855    2.8922    3.4198 H         1 <0>         0.1241
     31 H3          3.6387    3.7331    1.3572 H         1 <0>         0.1285
     32 H4          3.1623    2.1910   -0.5008 H         1 <0>         0.1255
     33 H5          4.7800   -1.0434    1.7813 H         1 <0>         0.1161
     34 H6          5.2520    0.5067    3.6337 H         1 <0>         0.1241
     35 H7          3.2241    1.1453   -1.8888 H         1 <0>         0.1492
     36 H8         -0.0750   -2.7680   -2.7241 H         1 <0>         0.1365
     37 H9          3.4561   -4.9141   -3.8105 H         1 <0>         0.1389
     38 H10         5.1711   -4.4815   -1.3956 H         1 <0>         0.3894
     39 H11         0.9211   -4.1277   -5.2007 H         1 <0>         0.3961
     40 H12         1.1577   -0.4776   -1.1198 H         1 <0>         0.3801
     41 H13         4.2315   -3.9829    1.1391 H         1 <0>         0.3961
     42 H14         2.0618   -3.3889    3.0012 H         1 <0>         0.0896
     43 H15         4.9734   -3.4675    3.9144 H         1 <0>         0.0635
     44 H16         3.9315   -2.0245    3.8908 H         1 <0>         0.0683
     45 H17         4.0061   -3.0314    6.1556 H         1 <0>         0.0657
     46 H18         2.3675   -3.1279    5.4671 H         1 <0>         0.0646
     47 H19         4.4413   -5.3675    5.4471 H         1 <0>         0.0628
     48 H20         3.0205   -5.2781    6.5155 H         1 <0>         0.0647
     49 H21         2.5716   -6.7319    4.5575 H         1 <0>         0.0682
     50 H22         1.5298   -5.2889    4.5340 H         1 <0>         0.0655
     51 H23         2.4970   -5.7250    2.2928 H         1 <0>         0.0686
     52 H24         4.1357   -5.6285    2.9812 H         1 <0>         0.0684
@<TRIPOS>BOND
     1    1    6 ar
     2    1    2 ar
     3    1   30 1
     4    2    3 ar
     5    2   31 1
     6    3    4 ar
     7    3   32 1
     8    4    5 ar
     9    4    7 1
    10    5    6 ar
    11    5   33 1
    12    6   34 1
    13    7    8 am
    14    7   10 1
    15    8    9 2
    16    8   35 1
    17   10   11 1
    18   10   12 1
    19   10   21 1
    20   12   17 ar
    21   12   13 ar
    22   13   14 ar
    23   13   20 1
    24   14   15 ar
    25   14   36 1
    26   15   16 ar
    27   15   19 1
    28   16   17 ar
    29   16   37 1
    30   17   18 1
    31   18   38 1
    32   19   39 1
    33   20   40 1
    34   21   22 2
    35   21   23 am
    36   23   24 1
    37   23   41 1
    38   24   29 1
    39   24   25 1
    40   24   42 1
    41   25   26 1
    42   25   43 1
    43   25   44 1
    44   26   27 1
    45   26   45 1
    46   26   46 1
    47   27   28 1
    48   27   47 1
    49   27   48 1
    50   28   29 1
    51   28   49 1
    52   28   50 1
    53   29   51 1
    54   29   52 1
@<TRIPOS>MOLECULE
ZINC18063836
   49    51     0     0     0
SMALL
USER_CHARGES

@<TRIPOS>ATOM
      1 C1          0.2930    1.4790    2.3604 C.3       1 <0>        -0.1298
      2 C2          0.2607   -0.0276    2.3568 C.ar      1 <0>        -0.0563
      3 C3          1.0595   -0.7327    1.4753 C.ar      1 <0>        -0.0887
      4 C4          1.0326   -2.1135    1.4698 C.ar      1 <0>        -0.1524
      5 C5          0.2020   -2.7939    2.3507 C.ar      1 <0>         0.0713
      6 C6         -0.5991   -2.0827    3.2347 C.ar      1 <0>        -0.0914
      7 C7         -0.5635   -0.7021    3.2388 C.ar      1 <0>        -0.0897
      8 N1          0.1719   -4.1923    2.3474 N.pl3     1 <0>        -0.5876
      9 C8          0.0235   -4.8745    1.1614 C.cat     1 <0>         0.7431
     10 N2          0.0250   -4.2256    0.0323 N.pl3     1 <0>        -0.7590
     11 N3         -0.1270   -6.2463    1.1687 N.pl3     1 <0>        -0.6246
     12 C9         -0.0079   -6.9442    2.3460 C.2       1 <0>         0.6293
     13 N4          0.0941   -6.2846    3.4815 N.2       1 <0>        -0.5719
     14 C10         0.2108   -6.9214    4.6449 C.2       1 <0>         0.2092
     15 C11         0.2268   -8.2853    4.6798 C.2       1 <0>        -0.2370
     16 C12         0.1184   -8.9970    3.4714 C.2       1 <0>         0.5408
     17 N5         -0.0030   -8.3040    2.3190 N.am      1 <0>        -0.6241
     18 O1          0.1292  -10.2170    3.4651 O.2       1 <0>        -0.4817
     19 C13         0.3258   -6.1347    5.9251 C.3       1 <0>        -0.0788
     20 S1          1.9911   -5.4267    6.0521 S.3       1 <0>        -0.0880
     21 C14         1.9660   -4.5495    7.5800 C.ar      1 <0>        -0.1001
     22 C15         0.8158   -4.5419    8.3600 C.ar      1 <0>        -0.1267
     23 C16         0.7997   -3.8534    9.5568 C.ar      1 <0>        -0.1005
     24 C17         1.9264   -3.1718    9.9796 C.ar      1 <0>        -0.0769
     25 C18         3.0727   -3.1768    9.2058 C.ar      1 <0>        -0.0998
     26 C19         3.0981   -3.8683    8.0109 C.ar      1 <0>        -0.0893
     27 C20         1.9049   -2.4216   11.2864 C.3       1 <0>        -0.1213
     28 H1          1.0584    1.8243    3.0554 H         1 <0>         0.0844
     29 H2          0.5231    1.8399    1.3579 H         1 <0>         0.0769
     30 H3         -0.6790    1.8626    2.6704 H         1 <0>         0.0772
     31 H4          1.7049   -0.2031    0.7903 H         1 <0>         0.1435
     32 H5          1.6564   -2.6636    0.7809 H         1 <0>         0.1341
     33 H6         -1.2463   -2.6089    3.9208 H         1 <0>         0.1388
     34 H7         -1.1832   -0.1486    3.9288 H         1 <0>         0.1437
     35 H8          0.2558   -4.6812    3.1810 H         1 <0>         0.4532
     36 H9         -0.1436   -4.6972   -0.7984 H         1 <0>         0.4420
     37 H10         0.3216   -8.8095    5.6193 H         1 <0>         0.1803
     38 H11        -0.4113   -5.3317    5.9256 H         1 <0>         0.1174
     39 H12         0.1456   -6.7939    6.7742 H         1 <0>         0.1250
     40 H13        -0.0646   -5.0736    8.0303 H         1 <0>         0.1219
     41 H14        -0.0939   -3.8467   10.1633 H         1 <0>         0.1295
     42 H15         3.9506   -2.6432    9.5389 H         1 <0>         0.1322
     43 H16         3.9952   -3.8760    7.4096 H         1 <0>         0.1286
     44 H17         2.2259   -3.0835   12.0907 H         1 <0>         0.0765
     45 H18         2.5805   -1.5682   11.2266 H         1 <0>         0.0708
     46 H19         0.8927   -2.0703   11.4870 H         1 <0>         0.0700
     47 H20        -0.3168   -6.7178    0.3425 H         1 <0>         0.4572
     48 H21         0.1946   -3.2706    0.0220 H         1 <0>         0.4498
     49 H22        -0.0827   -8.7742    1.4744 H         1 <0>         0.4291
@<TRIPOS>BOND
     1    1    2 1
     2    1   28 1
     3    1   29 1
     4    1   30 1
     5    2    7 ar
     6    2    3 ar
     7    3    4 ar
     8    3   31 1
     9    4    5 ar
    10    4   32 1
    11    5    6 ar
    12    5    8 1
    13    6    7 ar
    14    6   33 1
    15    7   34 1
    16    8    9 1
    17    8   35 1
    18    9   10 2
    19    9   11 1
    20   10   36 1
    21   10   48 1
    22   11   12 1
    23   11   47 1
    24   12   17 1
    25   12   13 2
    26   13   14 1
    27   14   15 2
    28   14   19 1
    29   15   16 1
    30   15   37 1
    31   16   17 am
    32   16   18 2
    33   17   49 1
    34   19   20 1
    35   19   38 1
    36   19   39 1
    37   20   21 1
    38   21   26 ar
    39   21   22 ar
    40   22   23 ar
    41   22   40 1
    42   23   24 ar
    43   23   41 1
    44   24   25 ar
    45   24   27 1
    46   25   26 ar
    47   25   42 1
    48   26   43 1
    49   27   44 1
    50   27   45 1
    51   27   46 1
@<TRIPOS>MOLECULE
ZINC66328680
   58    60     0     0     0
SMALL
USER_CHARGES

@<TRIPOS>ATOM
      1 C1         -0.0253    1.5110    0.0666 C.3       1 <0>        -0.1643
      2 C2          0.0046   -0.0186    0.0535 C.3       1 <0>         0.1572
      3 H1         -1.0156   -0.4021    0.0703 H         1 <0>         0.0973
      4 C3          0.7112   -0.5041   -1.2138 C.3       1 <0>        -0.1507
      5 C4          0.6330   -2.0072   -1.2881 C.2       1 <0>         0.5070
      6 O1          0.0678   -2.6290   -0.4134 O.2       1 <0>        -0.5029
      7 N1          1.1912   -2.6605   -2.3264 N.am      1 <0>        -0.6750
      8 C5          1.2037   -4.0612   -2.3475 C.ar      1 <0>         0.1269
      9 C6          2.2870   -4.7378   -2.8925 C.ar      1 <0>        -0.1251
     10 C7          2.2993   -6.1181   -2.9134 C.ar      1 <0>        -0.1280
     11 C8          1.2282   -6.8299   -2.3898 C.ar      1 <0>         0.1485
     12 C9          0.1447   -6.1534   -1.8452 C.ar      1 <0>        -0.0995
     13 C10         0.1353   -4.7732   -1.8184 C.ar      1 <0>        -0.0990
     14 N2          1.2405   -8.2308   -2.4114 N.am      1 <0>        -0.6851
     15 C11         0.0927   -8.9120   -2.5987 C.2       1 <0>         0.7075
     16 O2         -0.9646   -8.3152   -2.6649 O.2       1 <0>        -0.5681
     17 N3          0.1169  -10.2547   -2.7125 N.am      1 <0>        -0.7129
     18 C12        -1.1308  -10.9952   -2.9161 C.3       1 <0>         0.0963
     19 C13        -1.3325  -12.2762   -2.1042 C.3       1 <0>        -0.1935
     20 C14        -1.0388  -12.3590   -3.6034 C.3       1 <0>        -0.1887
     21 N4          0.7278   -0.5030    1.2318 N.am      1 <0>        -0.7190
     22 C15         0.0809   -0.6545    2.4044 C.2       1 <0>         0.5253
     23 O3         -1.0999   -0.3898    2.4841 O.2       1 <0>        -0.5374
     24 C16         0.8249   -1.1528    3.6166 C.3       1 <0>        -0.1046
     25 C17         1.3974   -2.5420    3.3281 C.3       1 <0>        -0.1057
     26 C18         2.1528   -3.0479    4.5588 C.3       1 <0>        -0.1177
     27 C19         1.1939   -3.1283    5.7483 C.3       1 <0>        -0.1228
     28 C20         0.6214   -1.7391    6.0367 C.3       1 <0>        -0.1198
     29 C21        -0.1340   -1.2332    4.8061 C.3       1 <0>        -0.0992
     30 H2          0.9948    1.8945    0.0498 H         1 <0>         0.0583
     31 H3         -0.5635    1.8714   -0.8101 H         1 <0>         0.0677
     32 H4         -0.5287    1.8569    0.9694 H         1 <0>         0.0664
     33 H5          0.2260   -0.0713   -2.0887 H         1 <0>         0.1131
     34 H6          1.7562   -0.1954   -1.1880 H         1 <0>         0.1027
     35 H7          1.5842   -2.1609   -3.0590 H         1 <0>         0.4102
     36 H8          3.1198   -4.1841   -3.3004 H         1 <0>         0.1291
     37 H9          3.1419   -6.6442   -3.3373 H         1 <0>         0.1289
     38 H10        -0.6885   -6.7071   -1.4383 H         1 <0>         0.1438
     39 H11        -0.7052   -4.2471   -1.3905 H         1 <0>         0.1416
     40 H12         2.0751   -8.7104   -2.2916 H         1 <0>         0.4067
     41 H13         0.9603  -10.7309   -2.6597 H         1 <0>         0.3989
     42 H14        -2.0107  -10.3859   -3.1224 H         1 <0>         0.1412
     43 H15        -0.5369  -12.5681   -1.4186 H         1 <0>         0.0972
     44 H16        -2.3453  -12.5099   -1.7761 H         1 <0>         0.1046
     45 H17        -1.8584  -12.6471   -4.2617 H         1 <0>         0.1059
     46 H18        -0.0500  -12.7053   -3.9042 H         1 <0>         0.0975
     47 H19         1.6723   -0.7147    1.1681 H         1 <0>         0.3954
     48 H20         1.6383   -0.4661    3.8513 H         1 <0>         0.0935
     49 H21         0.5841   -3.2286    3.0934 H         1 <0>         0.0699
     50 H22         2.0805   -2.4847    2.4807 H         1 <0>         0.0625
     51 H23         2.5606   -4.0376    4.3533 H         1 <0>         0.0644
     52 H24         2.9661   -2.3613    4.7935 H         1 <0>         0.0628
     53 H25         0.3805   -3.8149    5.5136 H         1 <0>         0.0629
     54 H26         1.7320   -3.4887    6.6250 H         1 <0>         0.0623
     55 H27        -0.0617   -1.7964    6.8842 H         1 <0>         0.0655
     56 H28         1.4348   -1.0525    6.2715 H         1 <0>         0.0616
     57 H29        -0.5418   -0.2435    5.0116 H         1 <0>         0.0683
     58 H30        -0.9473   -1.9198    4.5714 H         1 <0>         0.0699
@<TRIPOS>BOND
     1    1    2 1
     2    1   30 1
     3    1   31 1
     4    1   32 1
     5    2    3 1
     6    2    4 1
     7    2   21 1
     8    4    5 1
     9    4   33 1
    10    4   34 1
    11    5    6 2
    12    5    7 am
    13    7    8 1
    14    7   35 1
    15    8   13 ar
    16    8    9 ar
    17    9   10 ar
    18    9   36 1
    19   10   11 ar
    20   10   37 1
    21   11   12 ar
    22   11   14 1
    23   12   13 ar
    24   12   38 1
    25   13   39 1
    26   14   15 am
    27   14   40 1
    28   15   16 2
    29   15   17 am
    30   17   18 1
    31   17   41 1
    32   18   20 1
    33   18   19 1
    34   18   42 1
    35   19   20 1
    36   19   43 1
    37   19   44 1
    38   20   45 1
    39   20   46 1
    40   21   22 am
    41   21   47 1
    42   22   23 2
    43   22   24 1
    44   24   29 1
    45   24   25 1
    46   24   48 1
    47   25   26 1
    48   25   49 1
    49   25   50 1
    50   26   27 1
    51   26   51 1
    52   26   52 1
    53   27   28 1
    54   27   53 1
    55   27   54 1
    56   28   29 1
    57   28   55 1
    58   28   56 1
    59   29   57 1
    60   29   58 1
@<TRIPOS>MOLECULE
ZINC67390330
   42    43     0     0     0
SMALL
USER_CHARGES

@<TRIPOS>ATOM
      1 C1          0.1554    1.4829    0.3280 C.3       1 <0>        -0.1610
      2 C2          0.0021   -0.0041    0.0020 C.3       1 <0>         0.2358
      3 C3          0.7532   -0.8348    1.0444 C.3       1 <0>        -0.1650
      4 C4         -1.4585   -0.3747    0.0218 C.ar      1 <0>        -0.0809
      5 C5         -2.0727   -0.6996    1.2169 C.ar      1 <0>        -0.0946
      6 C6         -3.4123   -1.0396    1.2357 C.ar      1 <0>        -0.1036
      7 C7         -4.1385   -1.0546    0.0582 C.ar      1 <0>        -0.0349
      8 C8         -3.5232   -0.7294   -1.1376 C.ar      1 <0>        -0.1038
      9 C9         -2.1850   -0.3841   -1.1543 C.ar      1 <0>        -0.1071
     10 Cl1        -5.8209   -1.4821    0.0809 Cl        1 <0>        -0.0658
     11 N1          0.5559   -0.2721   -1.3275 N.am      1 <0>        -0.7386
     12 C10         1.8489    0.0057   -1.5875 C.2       1 <0>         0.7123
     13 O1          2.5556    0.4789   -0.7186 O.2       1 <0>        -0.5779
     14 N2          2.3584   -0.2409   -2.8106 N.am      1 <0>        -0.7467
     15 C11         3.7638    0.0611   -3.0932 C.3       1 <0>         0.2189
     16 C12         4.0790   -0.3047   -4.5207 C.2       1 <0>        -0.1313
     17 C13         3.9924    0.4597   -5.6368 C.2       1 <0>        -0.1679
     18 C14         4.3384   -0.0924   -6.8559 C.2       1 <0>        -0.0017
     19 C15         4.7540   -1.3818   -6.8993 C.2       1 <0>        -0.7641
     20 S1          4.6708   -1.8547   -5.1798 S.3       1 <0>         0.1973
     21 S2          5.2533   -2.3405   -8.2908 S.o2      1 <0>         2.7385
     22 O2          5.0535   -3.7025   -7.9384 O.2       1 <0>        -0.9533
     23 O3          4.6424   -1.7510   -9.4303 O.2       1 <0>        -0.9526
     24 N3          6.8865   -2.1322   -8.4683 N.pl3     1 <0>        -1.2478
     25 H1          1.2118    1.7510    0.3137 H         1 <0>         0.0883
     26 H2         -0.3797    2.0748   -0.4146 H         1 <0>         0.0559
     27 H3         -0.2567    1.6824    1.3172 H         1 <0>         0.0667
     28 H4          0.3411   -0.6354    2.0336 H         1 <0>         0.0686
     29 H5          0.6440   -1.8942    0.8121 H         1 <0>         0.0579
     30 H6          1.8096   -0.5668    1.0301 H         1 <0>         0.0854
     31 H7         -1.5057   -0.6881    2.1360 H         1 <0>         0.1386
     32 H8         -3.8920   -1.2937    2.1694 H         1 <0>         0.1375
     33 H9         -4.0895   -0.7413   -2.0571 H         1 <0>         0.1360
     34 H10        -1.7057   -0.1255   -2.0870 H         1 <0>         0.1296
     35 H11        -0.0079   -0.6496   -2.0207 H         1 <0>         0.3962
     36 H12         1.7945   -0.6184   -3.5038 H         1 <0>         0.3996
     37 H13         3.9441    1.1255   -2.9425 H         1 <0>         0.0993
     38 H14         4.4012   -0.5140   -2.4215 H         1 <0>         0.0907
     39 H15         3.6577    1.4846   -5.5745 H         1 <0>         0.1498
     40 H16         4.2781    0.4947   -7.7603 H         1 <0>         0.1539
     41 H17         7.3721   -1.5600   -7.8537 H         1 <0>         0.4181
     42 H18         7.3576   -2.5823   -9.1869 H         1 <0>         0.4241
@<TRIPOS>BOND
     1    1    2 1
     2    1   25 1
     3    1   26 1
     4    1   27 1
     5    2    3 1
     6    2    4 1
     7    2   11 1
     8    3   28 1
     9    3   29 1
    10    3   30 1
    11    4    9 ar
    12    4    5 ar
    13    5    6 ar
    14    5   31 1
    15    6    7 ar
    16    6   32 1
    17    7    8 ar
    18    7   10 1
    19    8    9 ar
    20    8   33 1
    21    9   34 1
    22   11   12 am
    23   11   35 1
    24   12   13 2
    25   12   14 am
    26   14   15 1
    27   14   36 1
    28   15   16 1
    29   15   37 1
    30   15   38 1
    31   16   20 1
    32   16   17 2
    33   17   18 1
    34   17   39 1
    35   18   19 2
    36   18   40 1
    37   19   20 1
    38   19   21 1
    39   21   22 2
    40   21   23 2
    41   21   24 1
    42   24   41 1
    43   24   42 1
@<TRIPOS>MOLECULE
ZINC13979423
   55    57     0     0     0
SMALL
USER_CHARGES
N-[4-[[[(E)-3-(2-thienyl)prop-2-enoyl]carbamothioylamino]carbamoyl]phenyl]cyclohexanecarboxamide
@<TRIPOS>ATOM
      1 C1         -4.5791    0.5765    1.6002 C.2       1 <0>        -0.1738
      2 C2         -3.5842    1.5082    1.4439 C.2       1 <0>        -0.0985
      3 C3         -2.2955    1.0275    1.2411 C.2       1 <0>        -0.1848
      4 S1         -2.5538   -0.7375    1.2739 S.3       1 <0>         0.1341
      5 C4         -4.2652   -0.7453    1.5505 C.2       1 <0>        -0.1867
      6 C5         -1.0932    1.7499    1.0517 C.2       1 <0>         0.0655
      7 C6          0.0760    1.0853    0.8677 C.2       1 <0>        -0.2428
      8 C7          1.2755    1.8066    0.6728 C.2       1 <0>         0.5329
      9 O1          1.2610    3.0242    0.6749 O.2       1 <0>        -0.4134
     10 N1          2.4356    1.1468    0.4846 N.am      1 <0>        -0.6447
     11 C8          3.5796    1.8347    0.2987 C.2       1 <0>         0.5173
     12 S2          3.5592    3.5466    0.3017 S.2       1 <0>        -0.4604
     13 N2          4.7396    1.1749    0.1104 N.pl3     1 <0>        -0.4564
     14 N3          4.7563   -0.2260    0.1080 N.am      1 <0>        -0.5509
     15 C9          5.9164   -0.8857   -0.0802 C.2       1 <0>         0.5722
     16 O2          6.9484   -0.2652   -0.2479 O.2       1 <0>        -0.5130
     17 C10         5.9340   -2.3616   -0.0828 C.ar      1 <0>        -0.1541
     18 C11         4.7496   -3.0764    0.1154 C.ar      1 <0>        -0.0627
     19 C12         4.7686   -4.4529    0.1067 C.ar      1 <0>        -0.1528
     20 C13         5.9669   -5.1325   -0.0882 C.ar      1 <0>         0.1870
     21 C14         7.1488   -4.4239   -0.2798 C.ar      1 <0>        -0.1290
     22 C15         7.1360   -3.0473   -0.2779 C.ar      1 <0>        -0.0251
     23 N4          5.9834   -6.5268   -0.0912 N.am      1 <0>        -0.6763
     24 C16         7.0549   -7.1890    0.3883 C.2       1 <0>         0.5181
     25 O3          7.9629   -6.5768    0.9094 O.2       1 <0>        -0.5073
     26 C17         7.1246   -8.6903    0.2770 C.3       1 <0>        -0.1043
     27 C18         5.9418   -9.3124    1.0219 C.3       1 <0>        -0.1123
     28 C19         6.0126  -10.8366    0.9088 C.3       1 <0>        -0.1183
     29 C20         7.3218  -11.3334    1.5253 C.3       1 <0>        -0.1243
     30 C21         8.5046  -10.7113    0.7804 C.3       1 <0>        -0.1207
     31 C22         8.4338   -9.1871    0.8934 C.3       1 <0>        -0.1014
     32 H1         -5.6001    0.8896    1.7612 H         1 <0>         0.1399
     33 H2         -3.7926    2.5674    1.4773 H         1 <0>         0.1469
     34 H3         -4.9237   -1.5951    1.6538 H         1 <0>         0.1899
     35 H4         -1.1061    2.8298    1.0536 H         1 <0>         0.1563
     36 H5          0.0889    0.0054    0.8658 H         1 <0>         0.1273
     37 H6          2.4471    0.1769    0.4829 H         1 <0>         0.4016
     38 H7          5.5630    1.6700   -0.0233 H         1 <0>         0.4582
     39 H8          3.9330   -0.7210    0.2418 H         1 <0>         0.4174
     40 H9          3.8198   -2.5495    0.2713 H         1 <0>         0.1261
     41 H10         3.8529   -5.0060    0.2554 H         1 <0>         0.1376
     42 H11         8.0774   -4.9544   -0.4304 H         1 <0>         0.1458
     43 H12         8.0538   -2.4978   -0.4266 H         1 <0>         0.1451
     44 H13         5.2238   -7.0201   -0.4383 H         1 <0>         0.4150
     45 H14         7.0850   -8.9790   -0.7733 H         1 <0>         0.1039
     46 H15         5.9814   -9.0237    2.0722 H         1 <0>         0.0709
     47 H16         5.0091   -8.9585    0.5827 H         1 <0>         0.0661
     48 H17         5.9730  -11.1253   -0.1415 H         1 <0>         0.0660
     49 H18         5.1699  -11.2798    1.4395 H         1 <0>         0.0682
     50 H19         7.3722  -12.4193    1.4448 H         1 <0>         0.0653
     51 H20         7.3614  -11.0447    2.5756 H         1 <0>         0.0638
     52 H21         8.4650  -11.0000   -0.2699 H         1 <0>         0.0639
     53 H22         9.4373  -11.0653    1.2196 H         1 <0>         0.0685
     54 H23         9.2765   -8.7439    0.3628 H         1 <0>         0.0716
     55 H24         8.4734   -8.8984    1.9438 H         1 <0>         0.0719
@<TRIPOS>BOND
     1    1    5 2
     2    1    2 1
     3    1   32 1
     4    2    3 2
     5    2   33 1
     6    3    4 1
     7    3    6 1
     8    4    5 1
     9    5   34 1
    10    6    7 2
    11    6   35 1
    12    7    8 1
    13    7   36 1
    14    8    9 2
    15    8   10 am
    16   10   11 1
    17   10   37 1
    18   11   12 2
    19   11   13 1
    20   13   14 1
    21   13   38 1
    22   14   15 am
    23   14   39 1
    24   15   16 2
    25   15   17 1
    26   17   22 ar
    27   17   18 ar
    28   18   19 ar
    29   18   40 1
    30   19   20 ar
    31   19   41 1
    32   20   21 ar
    33   20   23 1
    34   21   22 ar
    35   21   42 1
    36   22   43 1
    37   23   24 am
    38   23   44 1
    39   24   25 2
    40   24   26 1
    41   26   31 1
    42   26   27 1
    43   26   45 1
    44   27   28 1
    45   27   46 1
    46   27   47 1
    47   28   29 1
    48   28   48 1
    49   28   49 1
    50   29   30 1
    51   29   50 1
    52   29   51 1
    53   30   31 1
    54   30   52 1
    55   30   53 1
    56   31   54 1
    57   31   55 1
@<TRIPOS>MOLECULE
ZINC16072859
   68    70     0     0     0
SMALL
USER_CHARGES
[2-[(3-carbamoyl-5,6-dihydro-4H-cyclopenta[d]thiophen-2-yl)amino]-2-oxo-ethyl] (2S)-2-[(4-tert-butylbenzoyl)amino]-3-methyl-butanoate
@<TRIPOS>ATOM
      1 C1          6.1962    6.1453    1.2252 C.3       1 <0>        -0.1394
      2 C2          4.7905    5.5414    1.2354 C.3       1 <0>        -0.1022
      3 C3          4.0492    5.9960    2.4942 C.3       1 <0>        -0.1519
      4 C4          4.0253    6.0094   -0.0041 C.3       1 <0>         0.1640
      5 H1          4.5534    5.6855   -0.9009 H         1 <0>         0.1332
      6 C5          2.6407    5.4145    0.0059 C.2       1 <0>         0.4692
      7 O1          1.6727    6.1374    0.0190 O.2       1 <0>        -0.4972
      8 O2          2.4829    4.0815    0.0003 O.3       1 <0>        -0.3224
      9 C6          1.1207    3.5789    0.0106 C.3       1 <0>         0.0552
     10 C7          1.1412    2.0721    0.0023 C.2       1 <0>         0.5116
     11 O3          2.1996    1.4801   -0.0110 O.2       1 <0>        -0.4702
     12 N1         -0.0167    1.3824    0.0096 N.am      1 <0>        -0.6154
     13 C8          0.0021   -0.0041    0.0020 C.2       1 <0>         0.0642
     14 C9         -1.0706   -0.8791    0.0132 C.2       1 <0>        -0.2092
     15 C10        -0.7762   -2.3116   -0.0028 C.2       1 <0>        -0.0950
     16 C11         0.5317   -2.6256   -0.0173 C.2       1 <0>        -0.2301
     17 S1          1.3724   -1.0611   -0.0162 S.3       1 <0>         0.2709
     18 C12         0.7543   -4.1138   -0.0303 C.3       1 <0>        -0.0327
     19 C13        -0.6060   -4.7070   -0.4588 C.3       1 <0>        -0.1165
     20 C14        -1.5861   -3.6087   -0.0003 C.3       1 <0>        -0.0613
     21 C15        -2.4518   -0.3875    0.0361 C.2       1 <0>         0.5823
     22 O4         -3.0407   -0.1784   -1.0083 O.2       1 <0>        -0.5320
     23 N2         -3.0692   -0.1673    1.2137 N.am      1 <0>        -0.8473
     24 N3          3.9288    7.4712    0.0047 N.am      1 <0>        -0.7139
     25 C16         4.9352    8.2160   -0.4942 C.2       1 <0>         0.5686
     26 O5          5.9229    7.6748   -0.9515 O.2       1 <0>        -0.5235
     27 C17         4.8378    9.6912   -0.4854 C.ar      1 <0>        -0.1433
     28 C18         3.7025   10.3156    0.0336 C.ar      1 <0>        -0.0810
     29 C19         3.6199   11.6927    0.0429 C.ar      1 <0>        -0.1292
     30 C20         4.6548   12.4543   -0.4701 C.ar      1 <0>        -0.0389
     31 C21         5.7809   11.8415   -0.9905 C.ar      1 <0>        -0.1241
     32 C22         5.8783   10.4654   -1.0013 C.ar      1 <0>        -0.0525
     33 C23         4.5553   13.9580   -0.4615 C.3       1 <0>        -0.0350
     34 C24         4.6342   14.4825   -1.8967 C.3       1 <0>        -0.1404
     35 C25         3.2227   14.3774    0.1622 C.3       1 <0>        -0.1468
     36 C26         5.7080   14.5407    0.3585 C.3       1 <0>        -0.1402
     37 H2          6.7243    5.8214    0.3284 H         1 <0>         0.0692
     38 H3          6.1244    7.2329    1.2317 H         1 <0>         0.0563
     39 H4          6.7413    5.8119    2.1083 H         1 <0>         0.0569
     40 H5          4.8623    4.4537    1.2289 H         1 <0>         0.0979
     41 H6          3.0477    5.5657    2.5015 H         1 <0>         0.0486
     42 H7          4.5943    5.6625    3.3773 H         1 <0>         0.0675
     43 H8          3.9774    7.0836    2.5008 H         1 <0>         0.0595
     44 H9          0.5935    3.9400   -0.8725 H         1 <0>         0.1145
     45 H10         0.6105    3.9305    0.9074 H         1 <0>         0.1139
     46 H11        -0.8633    1.8559    0.0162 H         1 <0>         0.4221
     47 H12         1.5278   -4.3762   -0.7520 H         1 <0>         0.0808
     48 H13         1.0262   -4.4662    0.9647 H         1 <0>         0.0864
     49 H14        -0.6496   -4.8423   -1.5395 H         1 <0>         0.0779
     50 H15        -0.8026   -5.6460    0.0587 H         1 <0>         0.0852
     51 H16        -2.4209   -3.5334   -0.6971 H         1 <0>         0.0743
     52 H17        -1.9517   -3.8247    1.0035 H         1 <0>         0.0808
     53 H18        -2.5999   -0.3339    2.0461 H         1 <0>         0.4038
     54 H19        -3.9829    0.1579    1.2289 H         1 <0>         0.4040
     55 H20         3.1406    7.9030    0.3696 H         1 <0>         0.4093
     56 H21         2.8921    9.7221    0.4303 H         1 <0>         0.1250
     57 H22         2.7436   12.1771    0.4476 H         1 <0>         0.1341
     58 H23         6.5852   12.4418   -1.3893 H         1 <0>         0.1300
     59 H24         6.7578    9.9883   -1.4078 H         1 <0>         0.1374
     60 H25         3.8130   14.0674   -2.4809 H         1 <0>         0.0576
     61 H26         4.5623   15.5701   -1.8905 H         1 <0>         0.0617
     62 H27         5.5836   14.1837   -2.3410 H         1 <0>         0.0589
     63 H28         3.1664   14.0037    1.1846 H         1 <0>         0.0600
     64 H29         3.1507   15.4650    0.1684 H         1 <0>         0.0612
     65 H30         2.4014   13.9623   -0.4221 H         1 <0>         0.0600
     66 H31         6.6575   14.2419   -0.0858 H         1 <0>         0.0588
     67 H32         5.6361   15.6283    0.3647 H         1 <0>         0.0616
     68 H33         5.6518   14.1671    1.3809 H         1 <0>         0.0576
@<TRIPOS>BOND
     1    1    2 1
     2    1   37 1
     3    1   38 1
     4    1   39 1
     5    2    3 1
     6    2    4 1
     7    2   40 1
     8    3   41 1
     9    3   42 1
    10    3   43 1
    11    4    5 1
    12    4    6 1
    13    4   24 1
    14    6    7 2
    15    6    8 1
    16    8    9 1
    17    9   10 1
    18    9   44 1
    19    9   45 1
    20   10   11 2
    21   10   12 am
    22   12   13 1
    23   12   46 1
    24   13   17 1
    25   13   14 2
    26   14   15 1
    27   14   21 1
    28   15   20 1
    29   15   16 2
    30   16   17 1
    31   16   18 1
    32   18   19 1
    33   18   47 1
    34   18   48 1
    35   19   20 1
    36   19   49 1
    37   19   50 1
    38   20   51 1
    39   20   52 1
    40   21   22 2
    41   21   23 am
    42   23   53 1
    43   23   54 1
    44   24   25 am
    45   24   55 1
    46   25   26 2
    47   25   27 1
    48   27   32 ar
    49   27   28 ar
    50   28   29 ar
    51   28   56 1
    52   29   30 ar
    53   29   57 1
    54   30   31 ar
    55   30   33 1
    56   31   32 ar
    57   31   58 1
    58   32   59 1
    59   33   34 1
    60   33   35 1
    61   33   36 1
    62   34   60 1
    63   34   61 1
    64   34   62 1
    65   35   63 1
    66   35   64 1
    67   35   65 1
    68   36   66 1
    69   36   67 1
    70   36   68 1
@<TRIPOS>MOLECULE
ZINC20827028
   59    62     0     0     0
SMALL
USER_CHARGES
2-[[4-amino-5-[N'-(1-benzyl-2-phenyl-ethylidene)hydrazino]-1,2,4-triazol-3-yl]sulfanyl]-N-(4-fluorophenyl)acetamide
@<TRIPOS>ATOM
      1 C1          5.6907    5.6704   -5.6483 C.ar      1 <0>        -0.1188
      2 C2          6.1948    4.3836   -5.6192 C.ar      1 <0>        -0.1192
      3 C3          5.3340    3.3029   -5.6622 C.ar      1 <0>        -0.1150
      4 C4          3.9690    3.5089   -5.7349 C.ar      1 <0>        -0.0817
      5 C5          3.4652    4.7957   -5.7698 C.ar      1 <0>        -0.1065
      6 C6          4.3257    5.8765   -5.7214 C.ar      1 <0>        -0.1175
      7 C7          3.0306    2.3308   -5.7822 C.3       1 <0>        -0.0201
      8 C8          2.6427    1.9408   -4.3792 C.2       1 <0>         0.1026
      9 N1          1.4266    2.0560   -3.9959 N.2       1 <0>        -0.1886
     10 N2          1.0660    1.6934   -2.6915 N.pl3     1 <0>        -0.5657
     11 C9         -0.2528    1.8184   -2.2757 C.2       1 <0>         0.4895
     12 N3         -1.2515    2.2566   -3.0027 N.2       1 <0>        -0.3136
     13 N4         -2.4072    2.2308   -2.2112 N.2       1 <0>        -0.3048
     14 C10        -2.0773    1.7725   -1.0275 C.2       1 <0>         0.1721
     15 N5         -0.7382    1.5028   -1.0374 N.pl3     1 <0>        -0.2631
     16 N6         -0.0107    1.0098    0.0083 N.3       1 <0>        -0.7781
     17 S1         -3.1696    1.5447    0.3362 S.3       1 <0>         0.0736
     18 C11        -4.7817    2.0829   -0.2980 C.3       1 <0>        -0.1452
     19 C12        -5.8210    1.9375    0.7835 C.2       1 <0>         0.5398
     20 O1         -5.5053    1.5127    1.8748 O.2       1 <0>        -0.5076
     21 N7         -7.1013    2.2796    0.5381 N.am      1 <0>        -0.6776
     22 C13        -8.0847    2.0544    1.5092 C.ar      1 <0>         0.1371
     23 C14        -9.3715    1.7001    1.1265 C.ar      1 <0>        -0.1132
     24 C15       -10.3384    1.4729    2.0862 C.ar      1 <0>        -0.1345
     25 C16       -10.0283    1.6093    3.4288 C.ar      1 <0>         0.0851
     26 C17        -8.7470    1.9681    3.8124 C.ar      1 <0>        -0.1343
     27 C18        -7.7757    2.1907    2.8561 C.ar      1 <0>        -0.0937
     28 F1        -10.9769    1.3915    4.3658 F         1 <0>        -0.1387
     29 C19         3.6862    1.4152   -3.4274 C.3       1 <0>        -0.0824
     30 C20         3.7695   -0.0844   -3.5515 C.ar      1 <0>        -0.0802
     31 C21         2.9773   -0.8889   -2.7539 C.ar      1 <0>        -0.1176
     32 C22         3.0502   -2.2644   -2.8710 C.ar      1 <0>        -0.1111
     33 C23         3.9225   -2.8355   -3.7787 C.ar      1 <0>        -0.1177
     34 C24         4.7188   -2.0310   -4.5722 C.ar      1 <0>        -0.1117
     35 C25         4.6421   -0.6555   -4.4588 C.ar      1 <0>        -0.1085
     36 H1          6.3632    6.5148   -5.6143 H         1 <0>         0.1217
     37 H2          7.2612    4.2226   -5.5624 H         1 <0>         0.1229
     38 H3          5.7279    2.2975   -5.6395 H         1 <0>         0.1225
     39 H4          2.3990    4.9567   -5.8310 H         1 <0>         0.1247
     40 H5          3.9319    6.8818   -5.7446 H         1 <0>         0.1227
     41 H6          2.1285    2.6032   -6.3497 H         1 <0>         0.0996
     42 H7          3.5308    1.4831   -6.2734 H         1 <0>         0.1001
     43 H8          1.8277    1.3097   -1.9968 H         1 <0>         0.4041
     44 H9         -0.5044    0.7892    0.9662 H         1 <0>         0.4497
     45 H10         1.0689    0.8334   -0.1075 H         1 <0>         0.4339
     46 H11        -4.7204    3.1364   -0.6084 H         1 <0>         0.1333
     47 H12        -5.0619    1.4619   -1.1616 H         1 <0>         0.1335
     48 H13        -7.3738    2.7357   -0.4251 H         1 <0>         0.4430
     49 H14        -9.6150    1.5980    0.0793 H         1 <0>         0.1381
     50 H15       -11.3382    1.1926    1.7890 H         1 <0>         0.1407
     51 H16        -8.5070    2.0736    4.8601 H         1 <0>         0.1398
     52 H17        -6.7764    2.4702    3.1556 H         1 <0>         0.1490
     53 H18         4.6627    1.8583   -3.6728 H         1 <0>         0.1065
     54 H19         3.4106    1.6831   -2.3967 H         1 <0>         0.0754
     55 H20         2.2988   -0.4428   -2.0419 H         1 <0>         0.1062
     56 H21         2.4284   -2.8928   -2.2508 H         1 <0>         0.1229
     57 H22         3.9821   -3.9101   -3.8676 H         1 <0>         0.1244
     58 H23         5.4005   -2.4772   -5.2811 H         1 <0>         0.1263
     59 H24         5.2642   -0.0270   -5.0788 H         1 <0>         0.1258
@<TRIPOS>BOND
     1    1    6 ar
     2    1    2 ar
     3    1   36 1
     4    2    3 ar
     5    2   37 1
     6    3    4 ar
     7    3   38 1
     8    4    5 ar
     9    4    7 1
    10    5    6 ar
    11    5   39 1
    12    6   40 1
    13    7    8 1
    14    7   41 1
    15    7   42 1
    16    8    9 2
    17    8   29 1
    18    9   10 1
    19   10   11 1
    20   10   43 1
    21   11   15 1
    22   11   12 2
    23   12   13 1
    24   13   14 2
    25   14   15 1
    26   14   17 1
    27   15   16 1
    28   16   44 1
    29   16   45 1
    30   17   18 1
    31   18   19 1
    32   18   46 1
    33   18   47 1
    34   19   20 2
    35   19   21 am
    36   21   22 1
    37   21   48 1
    38   22   27 ar
    39   22   23 ar
    40   23   24 ar
    41   23   49 1
    42   24   25 ar
    43   24   50 1
    44   25   26 ar
    45   25   28 1
    46   26   27 ar
    47   26   51 1
    48   27   52 1
    49   29   30 1
    50   29   53 1
    51   29   54 1
    52   30   35 ar
    53   30   31 ar
    54   31   32 ar
    55   31   55 1
    56   32   33 ar
    57   32   56 1
    58   33   34 ar
    59   33   57 1
    60   34   35 ar
    61   34   58 1
    62   35   59 1
@<TRIPOS>MOLECULE
ZINC36501353
   67    68     0     0     0
SMALL
USER_CHARGES

@<TRIPOS>ATOM
      1 C1          0.5662   -0.5748   -4.3110 C.3       1 <0>        -0.1558
      2 C2          0.2917   -0.1245   -2.8747 C.3       1 <0>        -0.0683
      3 C3          0.9636    1.2275   -2.6269 C.3       1 <0>        -0.1712
      4 C4         -1.2175    0.0092   -2.6617 C.3       1 <0>        -0.1422
      5 C5          0.8547   -1.1602   -1.8992 C.3       1 <0>        -0.1164
      6 C6          2.3554   -0.9253   -1.7160 C.3       1 <0>         0.1795
      7 C7          2.5747    0.2708   -0.7875 C.3       1 <0>        -0.2158
      8 C8          2.9954   -2.1718   -1.1018 C.3       1 <0>        -0.1612
      9 N1          2.9694   -0.6520   -3.0177 N.am      1 <0>        -0.7158
     10 C9          4.2410   -0.2100   -3.0835 C.2       1 <0>         0.5094
     11 O1          4.8768   -0.0385   -2.0651 O.2       1 <0>        -0.4976
     12 C10         4.8726    0.0710   -4.4226 C.3       1 <0>         0.1841
     13 H1          4.3445    0.8915   -4.9084 H         1 <0>         0.1094
     14 C11         4.7891   -1.1613   -5.2860 C.ar      1 <0>        -0.1460
     15 C12         5.4946   -2.3026   -4.9356 C.ar      1 <0>         0.1610
     16 C13         5.4177   -3.4366   -5.7301 C.ar      1 <0>        -0.1856
     17 C14         4.6350   -3.4294   -6.8748 C.ar      1 <0>         0.1474
     18 C15         3.9288   -2.2884   -7.2248 C.ar      1 <0>        -0.1819
     19 C16         4.0022   -1.1558   -6.4279 C.ar      1 <0>         0.1661
     20 O2          3.3065   -0.0392   -6.7683 O.3       1 <0>        -0.4953
     21 O3          4.5604   -4.5403   -7.6539 O.3       1 <0>        -0.4941
     22 O4          6.2616   -2.3096   -3.8138 O.3       1 <0>        -0.4681
     23 N2          6.2777    0.4395   -4.2321 N.am      1 <0>        -0.5818
     24 C17         6.7781    0.7500   -2.8906 C.3       1 <0>         0.1691
     25 C18         7.2725   -0.5132   -2.2341 C.2       1 <0>         0.0240
     26 C19         8.4994   -1.0458   -2.3772 C.2       1 <0>        -0.2120
     27 C20         8.5306   -2.2200   -1.5903 C.2       1 <0>        -0.2011
     28 C21         7.3209   -2.3346   -1.0133 C.2       1 <0>        -0.0685
     29 O5          6.5649   -1.2949   -1.4023 O.3       1 <0>        -0.1390
     30 C22         7.1099    0.4928   -5.2908 C.2       1 <0>         0.5330
     31 O6          6.6956    0.2357   -6.4013 O.2       1 <0>        -0.5307
     32 C23         8.5552    0.8718   -5.0948 C.3       1 <0>        -0.1299
     33 C24         9.2742    0.8564   -6.4453 C.3       1 <0>        -0.0499
     34 S1         11.0139    1.3126   -6.2094 S.3       1 <0>        -0.2495
     35 H2          1.5413   -0.2047   -4.6277 H         1 <0>         0.0660
     36 H3          0.5579   -1.6637   -4.3583 H         1 <0>         0.0573
     37 H4         -0.2052   -0.1766   -4.9702 H         1 <0>         0.0651
     38 H5          0.7574    1.8945   -3.4640 H         1 <0>         0.0499
     39 H6          0.5718    1.6651   -1.7087 H         1 <0>         0.0597
     40 H7          2.0402    1.0863   -2.5315 H         1 <0>         0.0911
     41 H8         -1.6961   -0.9541   -2.8383 H         1 <0>         0.0549
     42 H9         -1.4130    0.3299   -1.6385 H         1 <0>         0.0558
     43 H10        -1.6185    0.7470   -3.3567 H         1 <0>         0.0566
     44 H11         0.3517   -1.0640   -0.9370 H         1 <0>         0.0810
     45 H12         0.6895   -2.1614   -2.2971 H         1 <0>         0.0681
     46 H13         2.3311   -0.0142    0.2360 H         1 <0>         0.0561
     47 H14         3.6174    0.5843   -0.8389 H         1 <0>         0.0967
     48 H15         1.9319    1.0945   -1.0980 H         1 <0>         0.0913
     49 H16         2.9187   -3.0027   -1.8030 H         1 <0>         0.0493
     50 H17         4.0455   -1.9730   -0.8875 H         1 <0>         0.0763
     51 H18         2.4781   -2.4278   -0.1771 H         1 <0>         0.0632
     52 H19         2.4609   -0.7892   -3.8322 H         1 <0>         0.4074
     53 H20         5.9677   -4.3252   -5.4575 H         1 <0>         0.1361
     54 H21         3.3195   -2.2827   -8.1165 H         1 <0>         0.1384
     55 H22         3.7943    0.5690   -7.3404 H         1 <0>         0.4005
     56 H23         3.8474   -5.1457   -7.4084 H         1 <0>         0.3948
     57 H24         5.8211   -2.6838   -3.0385 H         1 <0>         0.3836
     58 H25         7.5971    1.4654   -2.9650 H         1 <0>         0.0908
     59 H26         5.9738    1.1792   -2.2931 H         1 <0>         0.1427
     60 H27         9.3057   -0.6524   -2.9785 H         1 <0>         0.1382
     61 H28         9.3653   -2.8954   -1.4748 H         1 <0>         0.1369
     62 H29         7.0113   -3.1262   -0.3470 H         1 <0>         0.1904
     63 H30         8.6135    1.8711   -4.6635 H         1 <0>         0.1067
     64 H31         9.0302    0.1575   -4.4223 H         1 <0>         0.1125
     65 H32         9.2159   -0.1429   -6.8766 H         1 <0>         0.0904
     66 H33         8.7992    1.5707   -7.1179 H         1 <0>         0.0910
     67 H34        11.5339    1.2646   -7.4489 H         1 <0>         0.0959
@<TRIPOS>BOND
     1    1    2 1
     2    1   35 1
     3    1   36 1
     4    1   37 1
     5    2    3 1
     6    2    4 1
     7    2    5 1
     8    3   38 1
     9    3   39 1
    10    3   40 1
    11    4   41 1
    12    4   42 1
    13    4   43 1
    14    5    6 1
    15    5   44 1
    16    5   45 1
    17    6    7 1
    18    6    8 1
    19    6    9 1
    20    7   46 1
    21    7   47 1
    22    7   48 1
    23    8   49 1
    24    8   50 1
    25    8   51 1
    26    9   10 am
    27    9   52 1
    28   10   11 2
    29   10   12 1
    30   12   13 1
    31   12   14 1
    32   12   23 1
    33   14   19 ar
    34   14   15 ar
    35   15   16 ar
    36   15   22 1
    37   16   17 ar
    38   16   53 1
    39   17   18 ar
    40   17   21 1
    41   18   19 ar
    42   18   54 1
    43   19   20 1
    44   20   55 1
    45   21   56 1
    46   22   57 1
    47   23   24 1
    48   23   30 am
    49   24   25 1
    50   24   58 1
    51   24   59 1
    52   25   29 1
    53   25   26 2
    54   26   27 1
    55   26   60 1
    56   27   28 2
    57   27   61 1
    58   28   29 1
    59   28   62 1
    60   30   31 2
    61   30   32 1
    62   32   33 1
    63   32   63 1
    64   32   64 1
    65   33   34 1
    66   33   65 1
    67   33   66 1
    68   34   67 1
@<TRIPOS>MOLECULE
ZINC20518236
   59    63     0     0     0
SMALL
USER_CHARGES

@<TRIPOS>ATOM
      1 C1          2.0312   -0.3255   -1.9711 C.3       1 <0>        -0.1545
      2 C2          1.0261   -0.9290   -0.9879 C.3       1 <0>        -0.1255
      3 C3          1.7665   -1.4361    0.2512 C.3       1 <0>        -0.1145
      4 C4          0.7615   -2.0396    1.2344 C.3       1 <0>        -0.0853
      5 C5          1.4907   -2.5391    2.4550 C.ar      1 <0>        -0.0635
      6 C6          1.9649   -3.8375    2.4922 C.ar      1 <0>        -0.1044
      7 C7          2.6336   -4.2981    3.6095 C.ar      1 <0>        -0.0958
      8 C8          2.8299   -3.4560    4.6956 C.ar      1 <0>         0.0973
      9 C9          2.3531   -2.1529    4.6551 C.ar      1 <0>        -0.0924
     10 C10         1.6893   -1.6964    3.5331 C.ar      1 <0>        -0.1045
     11 N1          3.5079   -3.9209    5.8313 N.am      1 <0>        -0.5249
     12 C11         4.8104   -4.2273    5.8215 C.2       1 <0>         0.5291
     13 O1          5.5414   -4.1479    4.8577 O.2       1 <0>        -0.4540
     14 C12         5.2283   -4.6881    7.1991 C.3       1 <0>        -0.1527
     15 H1          6.0266   -4.0779    7.6214 H         1 <0>         0.1545
     16 C13         5.5915   -6.1870    7.1481 C.3       1 <0>         0.1018
     17 H2          6.2936   -6.4343    7.9443 H         1 <0>         0.1372
     18 N2          4.3030   -6.8997    7.3548 N.3       1 <0>        -0.6064
     19 C14         3.5976   -6.0860    8.3623 C.3       1 <0>         0.1275
     20 C15         3.9106   -4.6081    8.0195 C.3       1 <0>        -0.1309
     21 H3          3.9986   -3.9727    8.9008 H         1 <0>         0.1503
     22 C16         2.9066   -4.0890    7.0146 C.2       1 <0>         0.5265
     23 O2          1.7380   -3.8633    7.2447 O.2       1 <0>        -0.4361
     24 C17         2.1197   -6.3556    8.3508 C.ar      1 <0>        -0.1295
     25 C18         1.1431   -6.2414    7.3867 C.ar      1 <0>        -0.0642
     26 C19        -0.1678   -6.5762    7.6851 C.ar      1 <0>         0.0825
     27 C20        -0.4913   -7.0253    8.9546 C.ar      1 <0>        -0.1017
     28 C21         0.4850   -7.1398    9.9221 C.ar      1 <0>        -0.1119
     29 C22         1.8050   -6.8047    9.6298 C.ar      1 <0>         0.1577
     30 N3          2.9524   -6.8340   10.4274 N.am      1 <0>        -0.6549
     31 C23         4.0473   -6.4267    9.7567 C.2       1 <0>         0.5645
     32 O3          5.1766   -6.3497   10.1926 O.2       1 <0>        -0.4695
     33 F1         -1.1273   -6.4653    6.7405 F         1 <0>        -0.1323
     34 C24         6.1871   -6.5442    5.7848 C.3       1 <0>        -0.1478
     35 C25         6.6469   -7.9793    5.7979 C.2       1 <0>         0.5157
     36 O4          6.5116   -8.6503    6.7990 O.2       1 <0>        -0.5166
     37 N4          7.2085   -8.5170    4.6970 N.am      1 <0>        -0.8589
     38 H4          2.7534   -1.0869   -2.2656 H         1 <0>         0.0539
     39 H5          1.5037    0.0358   -2.8539 H         1 <0>         0.0547
     40 H6          2.5524    0.5045   -1.4942 H         1 <0>         0.0538
     41 H7          0.3039   -0.1675   -0.6934 H         1 <0>         0.0623
     42 H8          0.5049   -1.7590   -1.4648 H         1 <0>         0.0624
     43 H9          2.4887   -2.1975   -0.0433 H         1 <0>         0.0643
     44 H10         2.2878   -0.6061    0.7281 H         1 <0>         0.0641
     45 H11         0.0393   -1.2781    1.5289 H         1 <0>         0.0762
     46 H12         0.2402   -2.8696    0.7575 H         1 <0>         0.0764
     47 H13         1.8119   -4.4921    1.6470 H         1 <0>         0.1325
     48 H14         3.0031   -5.3126    3.6383 H         1 <0>         0.1241
     49 H15         2.5041   -1.4956    5.4987 H         1 <0>         0.1260
     50 H16         1.3214   -0.6815    3.4996 H         1 <0>         0.1323
     51 H17         3.7754   -6.9494    6.4962 H         1 <0>         0.3453
     52 H18         1.3990   -5.8905    6.3978 H         1 <0>         0.1293
     53 H19        -1.5129   -7.2867    9.1882 H         1 <0>         0.1483
     54 H20         0.2250   -7.4900   10.9101 H         1 <0>         0.1425
     55 H21         2.9595   -7.1153   11.3557 H         1 <0>         0.4217
     56 H22         5.4301   -6.4123    5.0117 H         1 <0>         0.0937
     57 H23         7.0359   -5.8926    5.5771 H         1 <0>         0.1201
     58 H24         7.3168   -7.9804    3.8963 H         1 <0>         0.4010
     59 H25         7.5045   -9.4408    4.7054 H         1 <0>         0.4030
@<TRIPOS>BOND
     1    1    2 1
     2    1   38 1
     3    1   39 1
     4    1   40 1
     5    2    3 1
     6    2   41 1
     7    2   42 1
     8    3    4 1
     9    3   43 1
    10    3   44 1
    11    4    5 1
    12    4   45 1
    13    4   46 1
    14    5   10 ar
    15    5    6 ar
    16    6    7 ar
    17    6   47 1
    18    7    8 ar
    19    7   48 1
    20    8    9 ar
    21    8   11 1
    22    9   10 ar
    23    9   49 1
    24   10   50 1
    25   11   22 am
    26   11   12 am
    27   12   13 2
    28   12   14 1
    29   14   15 1
    30   14   20 1
    31   14   16 1
    32   16   17 1
    33   16   18 1
    34   16   34 1
    35   18   19 1
    36   18   51 1
    37   19   31 1
    38   19   20 1
    39   19   24 1
    40   20   21 1
    41   20   22 1
    42   22   23 2
    43   24   29 ar
    44   24   25 ar
    45   25   26 ar
    46   25   52 1
    47   26   27 ar
    48   26   33 1
    49   27   28 ar
    50   27   53 1
    51   28   29 ar
    52   28   54 1
    53   29   30 1
    54   30   31 am
    55   30   55 1
    56   31   32 2
    57   34   35 1
    58   34   56 1
    59   34   57 1
    60   35   36 2
    61   35   37 am
    62   37   58 1
    63   37   59 1
@<TRIPOS>MOLECULE
ZINC13978525
   58    60     0     0     0
SMALL
USER_CHARGES
N-[4-[[[(E)-3-(5-methyl-2-furyl)prop-2-enoyl]carbamothioylamino]carbamoyl]phenyl]cyclohexanecarboxamide
@<TRIPOS>ATOM
      1 C1         10.4821   -2.6474   -0.9902 C.3       1 <0>        -0.0822
      2 C2          9.9957   -4.0720   -0.9179 C.2       1 <0>         0.0214
      3 C3         10.7785   -5.1723   -0.9791 C.2       1 <0>        -0.2205
      4 C4          9.9352   -6.2881   -0.8693 C.2       1 <0>        -0.1375
      5 C5          8.6502   -5.7991   -0.7524 C.2       1 <0>        -0.0332
      6 O1          8.7177   -4.4516   -0.7817 O.3       1 <0>        -0.1641
      7 C6          7.4722   -6.5725   -0.6195 C.2       1 <0>         0.0475
      8 C7          6.2667   -5.9591   -0.5072 C.2       1 <0>        -0.2362
      9 C8          5.0901   -6.7317   -0.3743 C.2       1 <0>         0.5319
     10 O2          5.1582   -7.9473   -0.3607 O.2       1 <0>        -0.4135
     11 N1          3.8930   -6.1226   -0.2628 N.am      1 <0>        -0.6444
     12 C9          2.7713   -6.8591   -0.1362 C.2       1 <0>         0.5175
     13 S1          2.8672   -8.5683   -0.1170 S.2       1 <0>        -0.4605
     14 N2          1.5743   -6.2499   -0.0247 N.pl3     1 <0>        -0.4565
     15 N3          1.4958   -4.8512   -0.0404 N.am      1 <0>        -0.5505
     16 C10         0.2988   -4.2421    0.0711 C.2       1 <0>         0.5725
     17 O3         -0.7131   -4.9065    0.1854 O.2       1 <0>        -0.5148
     18 C11         0.2161   -2.7685    0.0546 C.ar      1 <0>        -0.1528
     19 C12        -1.0243   -2.1353    0.1701 C.ar      1 <0>        -0.0270
     20 C13        -1.0978   -0.7607    0.1547 C.ar      1 <0>        -0.1512
     21 C14         0.0612   -0.0020    0.0249 C.ar      1 <0>         0.1831
     22 C15         1.2972   -0.6292   -0.0957 C.ar      1 <0>        -0.1280
     23 C16         1.3782   -2.0034   -0.0762 C.ar      1 <0>        -0.0648
     24 N4         -0.0168    1.3902    0.0097 N.am      1 <0>        -0.6755
     25 C17         0.9615    2.1261    0.5734 C.2       1 <0>         0.5197
     26 O4          1.9491    1.5819    1.0197 O.2       1 <0>        -0.5115
     27 C18         0.8281    3.6253    0.6493 C.3       1 <0>        -0.1044
     28 C19         0.7021    4.1982   -0.7638 C.3       1 <0>        -0.1124
     29 C20         0.5667    5.7203   -0.6868 C.3       1 <0>        -0.1185
     30 C21         1.8043    6.3087   -0.0064 C.3       1 <0>        -0.1240
     31 C22         1.9302    5.7357    1.4067 C.3       1 <0>        -0.1209
     32 C23         2.0657    4.2137    1.3297 C.3       1 <0>        -0.1005
     33 H1          9.6322   -1.9691   -0.9149 H         1 <0>         0.0790
     34 H2         11.1727   -2.4572   -0.1686 H         1 <0>         0.0919
     35 H3         10.9931   -2.4857   -1.9392 H         1 <0>         0.0919
     36 H4         11.8529   -5.1892   -1.0877 H         1 <0>         0.1567
     37 H5         10.2331   -7.3262   -0.8770 H         1 <0>         0.1609
     38 H6          7.5326   -7.6508   -0.6073 H         1 <0>         0.1660
     39 H7          6.2063   -4.8809   -0.5193 H         1 <0>         0.1324
     40 H8          3.8387   -5.1542   -0.2737 H         1 <0>         0.4024
     41 H9          0.7670   -6.7800    0.0665 H         1 <0>         0.4580
     42 H10         2.3031   -4.3212   -0.1315 H         1 <0>         0.4182
     43 H11        -1.9242   -2.7237    0.2716 H         1 <0>         0.1459
     44 H12        -2.0561   -0.2707    0.2440 H         1 <0>         0.1392
     45 H13         2.1945   -0.0374   -0.2008 H         1 <0>         0.1492
     46 H14         2.3384   -2.4897   -0.1660 H         1 <0>         0.1249
     47 H15        -0.7732    1.8290   -0.4101 H         1 <0>         0.4157
     48 H16        -0.0604    3.8823    1.2260 H         1 <0>         0.1035
     49 H17         1.5906    3.9412   -1.3406 H         1 <0>         0.0708
     50 H18        -0.1796    3.7791   -1.2486 H         1 <0>         0.0666
     51 H19        -0.3218    5.9773   -0.1100 H         1 <0>         0.0661
     52 H20         0.4769    6.1285   -1.6935 H         1 <0>         0.0686
     53 H21         1.7078    7.3930    0.0485 H         1 <0>         0.0654
     54 H22         2.6927    6.0517   -0.5831 H         1 <0>         0.0637
     55 H23         1.0418    5.9927    1.9835 H         1 <0>         0.0639
     56 H24         2.8119    6.1549    1.8915 H         1 <0>         0.0683
     57 H25         2.1554    3.8055    2.3364 H         1 <0>         0.0711
     58 H26         2.9541    3.9567    0.7529 H         1 <0>         0.0715
@<TRIPOS>BOND
     1    1    2 1
     2    1   33 1
     3    1   34 1
     4    1   35 1
     5    2    6 1
     6    2    3 2
     7    3    4 1
     8    3   36 1
     9    4    5 2
    10    4   37 1
    11    5    6 1
    12    5    7 1
    13    7    8 2
    14    7   38 1
    15    8    9 1
    16    8   39 1
    17    9   10 2
    18    9   11 am
    19   11   12 1
    20   11   40 1
    21   12   13 2
    22   12   14 1
    23   14   15 1
    24   14   41 1
    25   15   16 am
    26   15   42 1
    27   16   17 2
    28   16   18 1
    29   18   23 ar
    30   18   19 ar
    31   19   20 ar
    32   19   43 1
    33   20   21 ar
    34   20   44 1
    35   21   22 ar
    36   21   24 1
    37   22   23 ar
    38   22   45 1
    39   23   46 1
    40   24   25 am
    41   24   47 1
    42   25   26 2
    43   25   27 1
    44   27   32 1
    45   27   28 1
    46   27   48 1
    47   28   29 1
    48   28   49 1
    49   28   50 1
    50   29   30 1
    51   29   51 1
    52   29   52 1
    53   30   31 1
    54   30   53 1
    55   30   54 1
    56   31   32 1
    57   31   55 1
    58   31   56 1
    59   32   57 1
    60   32   58 1
@<TRIPOS>MOLECULE
ZINC21317371
   47    49     0     0     0
SMALL
USER_CHARGES
2-[[4-amino-5-((N'E)-N'-cinnamylidenehydrazino)-1,2,4-triazol-3-yl]sulfanyl]-N-(2-bromophenyl)acetamide
@<TRIPOS>ATOM
      1 C1         -6.2071    7.4831    0.1957 C.ar      1 <0>        -0.1134
      2 C2         -5.0198    8.1944    0.1963 C.ar      1 <0>        -0.1220
      3 C3         -3.8127    7.5282    0.1790 C.ar      1 <0>        -0.1026
      4 C4         -3.7902    6.1300    0.1610 C.ar      1 <0>        -0.0666
      5 C5         -4.9942    5.4185    0.1548 C.ar      1 <0>        -0.1061
      6 C6         -6.1931    6.0992    0.1784 C.ar      1 <0>        -0.1198
      7 C7         -2.5061    5.4111    0.1427 C.2       1 <0>        -0.0675
      8 C8         -2.4884    4.0618    0.1253 C.2       1 <0>        -0.1127
      9 C9         -1.2523    3.3697    0.1076 C.2       1 <0>         0.0792
     10 N1         -1.2352    2.0663    0.0909 N.2       1 <0>        -0.1881
     11 N2         -0.0128    1.3820    0.0734 N.pl3     1 <0>        -0.5584
     12 C10         0.0054   -0.0045    0.0555 C.2       1 <0>         0.4473
     13 N3         -1.0382   -0.7965    0.0637 N.2       1 <0>        -0.2820
     14 N4         -0.6598   -2.0243    0.0378 N.2       1 <0>        -0.2677
     15 C11         0.6494   -2.0910    0.0213 C.2       1 <0>         0.1148
     16 N5          1.1194   -0.8043    0.0321 N.pl3     1 <0>        -0.2421
     17 N6          2.4247   -0.4020    0.0209 N.3       1 <0>        -0.7684
     18 S1          1.6219   -3.5600   -0.0090 S.3       1 <0>         0.0795
     19 C12         0.3092   -4.8061   -0.0091 C.3       1 <0>        -0.1467
     20 C13         0.9228   -6.1823   -0.0339 C.2       1 <0>         0.5411
     21 O1          2.1291   -6.3082   -0.0500 O.2       1 <0>        -0.5068
     22 N7          0.1313   -7.2731   -0.0383 N.am      1 <0>        -0.6788
     23 C14         0.6971   -8.5478   -0.1562 C.ar      1 <0>         0.1785
     24 C15         1.9305   -8.8178    0.4218 C.ar      1 <0>        -0.1178
     25 C16         2.4845  -10.0778    0.3071 C.ar      1 <0>        -0.0844
     26 C17         1.8167  -11.0678   -0.3904 C.ar      1 <0>        -0.1283
     27 C18         0.5907  -10.8016   -0.9715 C.ar      1 <0>        -0.0726
     28 C19         0.0287   -9.5441   -0.8567 C.ar      1 <0>        -0.1207
     29 Br1        -1.6475   -9.1801   -1.6526 Br        1 <0>        -0.0418
     30 H1         -7.1493    8.0107    0.2093 H         1 <0>         0.1231
     31 H2         -5.0389    9.2742    0.2098 H         1 <0>         0.1245
     32 H3         -2.8871    8.0846    0.1798 H         1 <0>         0.1257
     33 H4         -4.9849    4.3387    0.1364 H         1 <0>         0.1286
     34 H5         -7.1237    5.5512    0.1785 H         1 <0>         0.1252
     35 H6         -1.5608    5.9736    0.1432 H         1 <0>         0.1287
     36 H7         -3.4337    3.4993    0.1249 H         1 <0>         0.1350
     37 H8         -0.3070    3.9322    0.1079 H         1 <0>         0.1173
     38 H9          0.9325    1.9445    0.0739 H         1 <0>         0.4087
     39 H10         3.2307   -1.1503    0.0019 H         1 <0>         0.4519
     40 H11         2.6698    0.6703    0.0309 H         1 <0>         0.4401
     41 H12        -0.3029   -4.6939    0.8979 H         1 <0>         0.1346
     42 H13        -0.3245   -4.6711   -0.8981 H         1 <0>         0.1352
     43 H14        -0.9594   -7.1616    0.0508 H         1 <0>         0.4424
     44 H15         2.4545   -8.0443    0.9636 H         1 <0>         0.1484
     45 H16         3.4423  -10.2890    0.7591 H         1 <0>         0.1341
     46 H17         2.2541  -12.0511   -0.4818 H         1 <0>         0.1341
     47 H18         0.0719  -11.5768   -1.5158 H         1 <0>         0.1373
@<TRIPOS>BOND
     1    1    6 ar
     2    1    2 ar
     3    1   30 1
     4    2    3 ar
     5    2   31 1
     6    3    4 ar
     7    3   32 1
     8    4    5 ar
     9    4    7 1
    10    5    6 ar
    11    5   33 1
    12    6   34 1
    13    7    8 2
    14    7   35 1
    15    8    9 1
    16    8   36 1
    17    9   10 2
    18    9   37 1
    19   10   11 1
    20   11   12 1
    21   11   38 1
    22   12   16 1
    23   12   13 2
    24   13   14 1
    25   14   15 2
    26   15   16 1
    27   15   18 1
    28   16   17 1
    29   17   39 1
    30   17   40 1
    31   18   19 1
    32   19   20 1
    33   19   41 1
    34   19   42 1
    35   20   21 2
    36   20   22 am
    37   22   23 1
    38   22   43 1
    39   23   28 ar
    40   23   24 ar
    41   24   25 ar
    42   24   44 1
    43   25   26 ar
    44   25   45 1
    45   26   27 ar
    46   26   46 1
    47   27   28 ar
    48   27   47 1
    49   28   29 1
@<TRIPOS>MOLECULE
ZINC35595049
   62    64     0     0     0
SMALL
USER_CHARGES

@<TRIPOS>ATOM
      1 C1          1.3541    1.2610   -0.1502 C.3       1 <0>        -0.1107
      2 C2          0.7126   -0.1008   -0.0797 C.ar      1 <0>        -0.0991
      3 C3          0.1310   -0.6484   -1.2083 C.ar      1 <0>        -0.1012
      4 C4         -0.4591   -1.8973   -1.1497 C.ar      1 <0>        -0.1823
      5 C5         -0.4693   -2.6037    0.0421 C.ar      1 <0>         0.0885
      6 C6          0.1164   -2.0526    1.1794 C.ar      1 <0>         0.1438
      7 C7          0.7119   -0.8017    1.1114 C.ar      1 <0>        -0.0967
      8 N1          0.1087   -2.7624    2.3880 N.am      1 <0>        -0.6737
      9 C8          0.2022   -2.1011    3.5586 C.2       1 <0>         0.7074
     10 O1          0.1894   -0.8853    3.5727 O.2       1 <0>        -0.5701
     11 N2          0.3098   -2.7873    4.7136 N.am      1 <0>        -0.7383
     12 C9          0.4115   -2.0684    5.9860 C.3       1 <0>         0.1269
     13 C10         0.5221   -3.0748    7.1330 C.3       1 <0>         0.1090
     14 N3          0.6237   -2.3559    8.4054 N.am      1 <0>        -0.7253
     15 C11         0.7314   -3.0421    9.5604 C.2       1 <0>         0.5657
     16 O2          0.7441   -4.2578    9.5463 O.2       1 <0>        -0.5345
     17 C12         0.8337   -2.3178   10.8424 C.ar      1 <0>        -0.1556
     18 C13         0.8134   -0.9206   10.8608 C.ar      1 <0>        -0.0643
     19 C14         0.9086   -0.2481   12.0583 C.ar      1 <0>        -0.1306
     20 C15         1.0255   -0.9580   13.2492 C.ar      1 <0>         0.1739
     21 C16         1.0460   -2.3491   13.2344 C.ar      1 <0>        -0.1541
     22 C17         0.9454   -3.0278   12.0409 C.ar      1 <0>        -0.0360
     23 N4          1.1226   -0.2737   14.4603 N.am      1 <0>        -0.6741
     24 C18         0.4468    0.8786   14.6393 C.2       1 <0>         0.5206
     25 O3         -0.1771    1.3647   13.7200 O.2       1 <0>        -0.5117
     26 C19         0.4665    1.5628   15.9819 C.3       1 <0>        -0.1122
     27 C20        -0.1826    0.6553   17.0471 C.3       1 <0>        -0.1168
     28 C21        -0.9498    1.6377   17.9667 C.3       1 <0>        -0.1244
     29 C22        -1.5054    2.6802   16.9650 C.3       1 <0>        -0.1258
     30 C23        -0.3745    2.8503   15.9297 C.3       1 <0>        -0.1204
     31 O4         -1.0501   -3.8318    0.1016 O.3       1 <0>        -0.3225
     32 C24        -1.6313   -4.3336   -1.1035 C.3       1 <0>         0.0298
     33 H1          2.4041    1.1543   -0.4227 H         1 <0>         0.0691
     34 H2          0.8436    1.8647   -0.9005 H         1 <0>         0.0661
     35 H3          1.2787    1.7489    0.8215 H         1 <0>         0.0678
     36 H4          0.1373   -0.0989   -2.1381 H         1 <0>         0.1259
     37 H5         -0.9125   -2.3222   -2.0330 H         1 <0>         0.1321
     38 H6          1.1711   -0.3736    1.9902 H         1 <0>         0.1544
     39 H7          0.0361   -3.7297    2.3819 H         1 <0>         0.4117
     40 H8          0.3200   -3.7572    4.7023 H         1 <0>         0.4018
     41 H9          1.2965   -1.4322    5.9742 H         1 <0>         0.0776
     42 H10        -0.4768   -1.4526    6.1273 H         1 <0>         0.0774
     43 H11        -0.3629   -3.7110    7.1448 H         1 <0>         0.0780
     44 H12         1.4103   -3.6906    6.9916 H         1 <0>         0.0782
     45 H13         0.6135   -1.3860    8.4167 H         1 <0>         0.4037
     46 H14         0.7234   -0.3690    9.9367 H         1 <0>         0.1298
     47 H15         0.8930    0.8316   12.0733 H         1 <0>         0.1464
     48 H16         1.1368   -2.8971   14.1606 H         1 <0>         0.1346
     49 H17         0.9570   -4.1077   12.0304 H         1 <0>         0.1415
     50 H18         1.6766   -0.6270   15.1739 H         1 <0>         0.4145
     51 H19         1.4923    1.7981   16.2657 H         1 <0>         0.1038
     52 H20        -0.8724   -0.0478   16.5802 H         1 <0>         0.0709
     53 H21         0.5824    0.1225   17.6119 H         1 <0>         0.0756
     54 H22        -1.7624    1.1278   18.4841 H         1 <0>         0.0710
     55 H23        -0.2724    2.1090   18.6788 H         1 <0>         0.0717
     56 H24        -2.4088    2.3042   16.4849 H         1 <0>         0.0672
     57 H25        -1.7057    3.6253   17.4699 H         1 <0>         0.0697
     58 H26         0.2429    3.7104   16.1890 H         1 <0>         0.0710
     59 H27        -0.7969    2.9802   14.9333 H         1 <0>         0.0903
     60 H28        -2.4154   -3.6547   -1.4388 H         1 <0>         0.0561
     61 H29        -0.8632   -4.4098   -1.8731 H         1 <0>         0.0561
     62 H30        -2.0587   -5.3190   -0.9179 H         1 <0>         0.1005
@<TRIPOS>BOND
     1    1    2 1
     2    1   33 1
     3    1   34 1
     4    1   35 1
     5    2    7 ar
     6    2    3 ar
     7    3    4 ar
     8    3   36 1
     9    4    5 ar
    10    4   37 1
    11    5    6 ar
    12    5   31 1
    13    6    7 ar
    14    6    8 1
    15    7   38 1
    16    8    9 am
    17    8   39 1
    18    9   10 2
    19    9   11 am
    20   11   12 1
    21   11   40 1
    22   12   13 1
    23   12   41 1
    24   12   42 1
    25   13   14 1
    26   13   43 1
    27   13   44 1
    28   14   15 am
    29   14   45 1
    30   15   16 2
    31   15   17 1
    32   17   22 ar
    33   17   18 ar
    34   18   19 ar
    35   18   46 1
    36   19   20 ar
    37   19   47 1
    38   20   21 ar
    39   20   23 1
    40   21   22 ar
    41   21   48 1
    42   22   49 1
    43   23   24 am
    44   23   50 1
    45   24   25 2
    46   24   26 1
    47   26   30 1
    48   26   27 1
    49   26   51 1
    50   27   28 1
    51   27   52 1
    52   27   53 1
    53   28   29 1
    54   28   54 1
    55   28   55 1
    56   29   30 1
    57   29   56 1
    58   29   57 1
    59   30   58 1
    60   30   59 1
    61   31   32 1
    62   32   60 1
    63   32   61 1
    64   32   62 1
@<TRIPOS>MOLECULE
ZINC39722418
   50    53     0     0     0
SMALL
USER_CHARGES

@<TRIPOS>ATOM
      1 C1          0.0508    1.4608   -0.1921 C.3       1 <0>        -0.1886
      2 C2         -0.0202   -0.0630   -0.0739 C.3       1 <0>        -0.0016
      3 N1          0.6852   -0.4934    1.1406 N.4       1 <0>        -0.4325
      4 C3          0.6218   -1.9721    1.2836 C.3       1 <0>         0.2136
      5 H1          0.7042   -2.4578    0.3113 H         1 <0>         0.1734
      6 N2          1.8095   -2.2734    2.1249 N.3       1 <0>        -0.4705
      7 N3          2.8387   -1.3430    1.6533 N.3       1 <0>        -0.4805
      8 C4          2.1339   -0.2051    1.0289 C.3       1 <0>         0.1235
      9 H2          2.4179   -0.1198   -0.0199 H         1 <0>         0.1768
     10 S1          2.5317    1.3307    1.9084 S.3       1 <0>         0.0319
     11 C5          2.0388    0.9956    3.6217 C.3       1 <0>        -0.0900
     12 C6          2.3197    2.2080    4.4715 C.2       1 <0>         0.3616
     13 N4          2.0215    2.1500    5.7956 N.am      1 <0>        -0.6512
     14 H3          1.6379    1.3400    6.1667 H         1 <0>         0.4109
     15 C7          2.2550    3.2116    6.6018 C.2       1 <0>         0.5569
     16 O1          1.9931    3.1731    7.7896 O.2       1 <0>        -0.5068
     17 C8          2.8392    4.4156    5.9855 C.ar      1 <0>        -0.1891
     18 C9          3.1175    5.5601    6.7303 C.ar      1 <0>        -0.0652
     19 C10         3.6596    6.6545    6.1189 C.ar      1 <0>        -0.0786
     20 C11         3.9397    6.6379    4.7462 C.ar      1 <0>        -0.0858
     21 C12         3.6691    5.5059    3.9853 C.ar      1 <0>        -0.0586
     22 C13         3.1153    4.3818    4.6011 C.ar      1 <0>         0.1124
     23 N5          2.8392    3.2525    3.9017 N.2       1 <0>        -0.4748
     24 C14         4.5264    7.8322    4.1024 C.2       1 <0>         0.5170
     25 O2          4.7657    8.8297    4.7674 O.co2     1 <0>        -0.6698
     26 O3          4.7725    7.8223    2.9049 O.co2     1 <0>        -0.6741
     27 C15        -0.6489   -2.3870    1.9793 C.ar      1 <0>        -0.1489
     28 C16        -1.5189   -3.2665    1.3623 C.ar      1 <0>        -0.0578
     29 C17        -2.6846   -3.6475    1.9999 C.ar      1 <0>        -0.0998
     30 C18        -2.9806   -3.1484    3.2558 C.ar      1 <0>        -0.0038
     31 C19        -2.1095   -2.2682    3.8728 C.ar      1 <0>        -0.0952
     32 C20        -0.9415   -1.8924    3.2366 C.ar      1 <0>        -0.1004
     33 Cl1        -4.4447   -3.6260    4.0570 Cl        1 <0>        -0.0336
     34 H4          1.0938    1.7726   -0.2480 H         1 <0>         0.0882
     35 H5         -0.4726    1.7801   -1.0933 H         1 <0>         0.1076
     36 H6         -0.4180    1.9152    0.6807 H         1 <0>         0.0846
     37 H7         -1.0632   -0.3749   -0.0181 H         1 <0>         0.1329
     38 H8          0.4486   -0.5174   -0.9467 H         1 <0>         0.1319
     39 H9          1.6077   -2.1243    3.1021 H         1 <0>         0.3805
     40 H10         3.4567   -1.7914    0.9936 H         1 <0>         0.3977
     41 H11         0.9735    0.7673    3.6553 H         1 <0>         0.0997
     42 H12         2.6048    0.1457    4.0030 H         1 <0>         0.1324
     43 H13         2.9045    5.5818    7.7889 H         1 <0>         0.1368
     44 H14         3.8739    7.5402    6.6984 H         1 <0>         0.1450
     45 H15         3.8854    5.4963    2.9272 H         1 <0>         0.1476
     46 H16        -1.2879   -3.6558    0.3817 H         1 <0>         0.1473
     47 H17        -3.3643   -4.3343    1.5176 H         1 <0>         0.1515
     48 H18        -2.3403   -1.8781    4.8531 H         1 <0>         0.1512
     49 H19        -0.2591   -1.2091    3.7202 H         1 <0>         0.1277
     50 H20         0.2965   -0.0407    1.9543 H         1 <0>         0.4166
@<TRIPOS>BOND
     1    1    2 1
     2    1   34 1
     3    1   35 1
     4    1   36 1
     5    2    3 1
     6    2   37 1
     7    2   38 1
     8    3    8 1
     9    3    4 1
    10    3   50 1
    11    4    5 1
    12    4    6 1
    13    4   27 1
    14    6    7 1
    15    6   39 1
    16    7    8 1
    17    7   40 1
    18    8    9 1
    19    8   10 1
    20   10   11 1
    21   11   12 1
    22   11   41 1
    23   11   42 1
    24   12   23 2
    25   12   13 1
    26   13   14 1
    27   13   15 am
    28   15   16 2
    29   15   17 1
    30   17   22 ar
    31   17   18 ar
    32   18   19 ar
    33   18   43 1
    34   19   20 ar
    35   19   44 1
    36   20   21 ar
    37   20   24 1
    38   21   22 ar
    39   21   45 1
    40   22   23 1
    41   24   25 2
    42   24   26 1
    43   27   32 ar
    44   27   28 ar
    45   28   29 ar
    46   28   46 1
    47   29   30 ar
    48   29   47 1
    49   30   31 ar
    50   30   33 1
    51   31   32 ar
    52   31   48 1
    53   32   49 1
@<TRIPOS>MOLECULE
ZINC58848738
   52    55     0     0     0
SMALL
USER_CHARGES

@<TRIPOS>ATOM
      1 C1         -1.4373    1.0066   -1.1177 C.3       1 <0>         0.0266
      2 O1         -0.9429   -0.2823   -0.7483 O.3       1 <0>        -0.3143
      3 C2          0.1359   -0.7496   -1.4331 C.ar      1 <0>         0.0914
      4 C3          0.7062    0.0170   -2.4310 C.ar      1 <0>        -0.1381
      5 C4          1.8101   -0.4659   -3.1279 C.ar      1 <0>        -0.0966
      6 C5          2.6445    0.0708   -4.2200 C.ar      1 <0>        -0.1237
      7 C6          2.6336    1.2535   -4.9520 C.ar      1 <0>        -0.0620
      8 C7          3.5786    1.4576   -5.9356 C.ar      1 <0>        -0.1389
      9 C8          4.5348    0.4882   -6.1933 C.ar      1 <0>        -0.0814
     10 C9          4.5542   -0.6881   -5.4737 C.ar      1 <0>        -0.1152
     11 C10         3.6104   -0.9116   -4.4783 C.ar      1 <0>         0.0872
     12 O2          3.4021   -1.9496   -3.6386 O.3       1 <0>        -0.1955
     13 C11         2.3465   -1.7248   -2.8239 C.ar      1 <0>         0.0727
     14 C12         1.7646   -2.4872   -1.8193 C.ar      1 <0>        -0.0817
     15 C13         0.6705   -2.0012   -1.1240 C.ar      1 <0>         0.1755
     16 N1          0.0929   -2.7730   -0.1075 N.am      1 <0>        -0.6732
     17 C14         0.0538   -4.1155   -0.2203 C.2       1 <0>         0.7052
     18 O3          0.5921   -4.6623   -1.1636 O.2       1 <0>        -0.5691
     19 N2         -0.5819   -4.8519    0.7124 N.am      1 <0>        -0.7404
     20 C15        -0.6244   -6.3112    0.5898 C.3       1 <0>         0.1431
     21 C16        -1.4007   -6.8997    1.7695 C.3       1 <0>        -0.1020
     22 C17        -1.4444   -8.4008    1.6433 C.ar      1 <0>        -0.0233
     23 C18        -2.4776   -9.0066    0.9531 C.ar      1 <0>        -0.1338
     24 C19        -2.5176  -10.3835    0.8373 C.ar      1 <0>        -0.0185
     25 C20        -1.5243  -11.1546    1.4115 C.ar      1 <0>        -0.6780
     26 C21        -0.4907  -10.5488    2.1010 C.ar      1 <0>        -0.0133
     27 C22        -0.4483   -9.1716    2.2131 C.ar      1 <0>        -0.1341
     28 S1         -1.5760  -12.9098    1.2650 S.o2      1 <0>         2.7018
     29 O4         -0.8262  -13.4305    2.3539 O.2       1 <0>        -0.9622
     30 O5         -2.9350  -13.2586    1.0398 O.2       1 <0>        -0.9601
     31 N3         -0.7499  -13.3106   -0.1131 N.pl3     1 <0>        -1.2478
     32 H1         -0.6542    1.7510   -0.9740 H         1 <0>         0.0579
     33 H2         -1.7384    0.9937   -2.1652 H         1 <0>         0.0577
     34 H3         -2.2963    1.2582   -0.4958 H         1 <0>         0.1036
     35 H4          0.2968    0.9875   -2.6697 H         1 <0>         0.1408
     36 H5          1.8881    2.0087   -4.7512 H         1 <0>         0.1286
     37 H6          3.5731    2.3745   -6.5063 H         1 <0>         0.1336
     38 H7          5.2715    0.6553   -6.9652 H         1 <0>         0.1389
     39 H8          5.3040   -1.4365   -5.6837 H         1 <0>         0.1363
     40 H9          2.1695   -3.4586   -1.5765 H         1 <0>         0.1621
     41 H10        -0.2790   -2.3413    0.6775 H         1 <0>         0.4145
     42 H11        -1.0114   -4.4158    1.4649 H         1 <0>         0.4004
     43 H12        -1.1191   -6.5832   -0.3427 H         1 <0>         0.0737
     44 H13         0.3917   -6.7056    0.5904 H         1 <0>         0.0740
     45 H14        -0.9060   -6.6277    2.7019 H         1 <0>         0.0884
     46 H15        -2.4169   -6.5053    1.7688 H         1 <0>         0.0884
     47 H16        -3.2536   -8.4042    0.5045 H         1 <0>         0.1359
     48 H17        -3.3252  -10.8569    0.2986 H         1 <0>         0.1445
     49 H18         0.2852  -11.1512    2.5499 H         1 <0>         0.1444
     50 H19         0.3612   -8.6980    2.7486 H         1 <0>         0.1359
     51 H20        -0.2870  -14.1610   -0.1711 H         1 <0>         0.4224
     52 H21        -0.7289  -12.6949   -0.8624 H         1 <0>         0.4176
@<TRIPOS>BOND
     1    1    2 1
     2    1   32 1
     3    1   33 1
     4    1   34 1
     5    2    3 1
     6    3   15 ar
     7    3    4 ar
     8    4    5 ar
     9    4   35 1
    10    5   13 ar
    11    5    6 1
    12    6   11 ar
    13    6    7 ar
    14    7    8 ar
    15    7   36 1
    16    8    9 ar
    17    8   37 1
    18    9   10 ar
    19    9   38 1
    20   10   11 ar
    21   10   39 1
    22   11   12 1
    23   12   13 1
    24   13   14 ar
    25   14   15 ar
    26   14   40 1
    27   15   16 1
    28   16   17 am
    29   16   41 1
    30   17   18 2
    31   17   19 am
    32   19   20 1
    33   19   42 1
    34   20   21 1
    35   20   43 1
    36   20   44 1
    37   21   22 1
    38   21   45 1
    39   21   46 1
    40   22   27 ar
    41   22   23 ar
    42   23   24 ar
    43   23   47 1
    44   24   25 ar
    45   24   48 1
    46   25   26 ar
    47   25   28 1
    48   26   27 ar
    49   26   49 1
    50   27   50 1
    51   28   29 2
    52   28   30 2
    53   28   31 1
    54   31   51 1
    55   31   52 1
@<TRIPOS>MOLECULE
ZINC10846740
   47    50     0     0     0
SMALL
USER_CHARGES
2-[(9,10-dioxo-1-anthryl)carbamoylmethylamino]benzamide
@<TRIPOS>ATOM
      1 C1         -2.8630    1.9230   -3.1311 C.ar      1 <0>        -0.0958
      2 C2         -2.8777    3.3059   -3.1386 C.ar      1 <0>        -0.0988
      3 C3         -1.8640    4.0211   -2.5254 C.ar      1 <0>        -0.0667
      4 C4         -0.8118    3.3467   -1.9127 C.ar      1 <0>        -0.1195
      5 C5         -0.7937    1.9407   -1.9105 C.ar      1 <0>        -0.1176
      6 C6         -1.8280    1.2366   -2.5212 C.ar      1 <0>        -0.0685
      7 C7          0.3160    1.2164   -1.2565 C.2       1 <0>         0.4359
      8 O1          0.3296    0.0013   -1.2495 O.2       1 <0>        -0.4243
      9 C8          1.4122    1.9728   -0.6164 C.ar      1 <0>        -0.0963
     10 C9          2.4638    1.2995   -0.0039 C.ar      1 <0>        -0.0851
     11 C10         3.4903    2.0124    0.5955 C.ar      1 <0>        -0.0699
     12 C11         3.4817    3.3916    0.5915 C.ar      1 <0>        -0.1162
     13 C12         2.4384    4.0875   -0.0165 C.ar      1 <0>         0.2116
     14 C13         1.3952    3.3802   -0.6251 C.ar      1 <0>        -0.1658
     15 C14         0.2855    4.1021   -1.2719 C.2       1 <0>         0.4471
     16 O2          0.2721    5.3176   -1.2783 O.2       1 <0>        -0.4489
     17 N1          2.4339    5.4784   -0.0186 N.am      1 <0>        -0.6584
     18 C15         3.5945    6.1561    0.0820 C.2       1 <0>         0.5087
     19 O3          4.6492    5.5575    0.0721 O.2       1 <0>        -0.4978
     20 C16         3.5818    7.6579    0.2067 C.3       1 <0>         0.0986
     21 N2          4.9578    8.1519    0.3001 N.pl3     1 <0>        -0.7164
     22 C17         5.1998    9.5139    0.4228 C.ar      1 <0>         0.2793
     23 C18         4.1399   10.4021    0.5587 C.ar      1 <0>        -0.2146
     24 C19         4.3831   11.7541    0.6858 C.ar      1 <0>        -0.0370
     25 C20         5.6818   12.2383    0.6686 C.ar      1 <0>        -0.1904
     26 C21         6.7452   11.3738    0.5290 C.ar      1 <0>        -0.0334
     27 C22         6.5158   10.0010    0.4045 C.ar      1 <0>        -0.2300
     28 C23         7.6493    9.0702    0.2544 C.2       1 <0>         0.5723
     29 O4          7.4530    7.8702    0.2414 O.2       1 <0>        -0.5462
     30 N3          8.9030    9.5494    0.1314 N.am      1 <0>        -0.8499
     31 H1         -3.6647    1.3753   -3.6041 H         1 <0>         0.1399
     32 H2         -3.6907    3.8312   -3.6177 H         1 <0>         0.1396
     33 H3         -1.8819    5.1009   -2.5346 H         1 <0>         0.1446
     34 H4         -1.8222    0.1567   -2.5192 H         1 <0>         0.1452
     35 H5          2.4804    0.2196    0.0049 H         1 <0>         0.1468
     36 H6          4.3040    1.4834    1.0693 H         1 <0>         0.1448
     37 H7          4.2875    3.9352    1.0624 H         1 <0>         0.1601
     38 H8          1.5955    5.9606   -0.0924 H         1 <0>         0.4266
     39 H9          3.0989    8.0911   -0.6692 H         1 <0>         0.1005
     40 H10         3.0316    7.9433    1.1033 H         1 <0>         0.1006
     41 H11         5.6999    7.5277    0.2762 H         1 <0>         0.4312
     42 H12         3.1249   10.0333    0.5690 H         1 <0>         0.1284
     43 H13         3.5562   12.4402    0.7950 H         1 <0>         0.1276
     44 H14         5.8610   13.2990    0.7647 H         1 <0>         0.1262
     45 H15         7.7549   11.7566    0.5155 H         1 <0>         0.1251
     46 H16         9.0596   10.5066    0.1418 H         1 <0>         0.4016
     47 H17         9.6488    8.9370    0.0326 H         1 <0>         0.4055
@<TRIPOS>BOND
     1    1    6 ar
     2    1    2 ar
     3    1   31 1
     4    2    3 ar
     5    2   32 1
     6    3    4 ar
     7    3   33 1
     8    4   15 1
     9    4    5 ar
    10    5    6 ar
    11    5    7 1
    12    6   34 1
    13    7    8 2
    14    7    9 1
    15    9   14 ar
    16    9   10 ar
    17   10   11 ar
    18   10   35 1
    19   11   12 ar
    20   11   36 1
    21   12   13 ar
    22   12   37 1
    23   13   14 ar
    24   13   17 1
    25   14   15 1
    26   15   16 2
    27   17   18 am
    28   17   38 1
    29   18   19 2
    30   18   20 1
    31   20   21 1
    32   20   39 1
    33   20   40 1
    34   21   22 1
    35   21   41 1
    36   22   27 ar
    37   22   23 ar
    38   23   24 ar
    39   23   42 1
    40   24   25 ar
    41   24   43 1
    42   25   26 ar
    43   25   44 1
    44   26   27 ar
    45   26   45 1
    46   27   28 1
    47   28   29 2
    48   28   30 am
    49   30   46 1
    50   30   47 1
@<TRIPOS>MOLECULE
ZINC37538761
   69    70     0     0     0
SMALL
USER_CHARGES

@<TRIPOS>ATOM
      1 C1          1.2202    2.3722   -0.9890 C.3       1 <0>        -0.1270
      2 C2          1.0479    0.9306   -0.5908 C.2       1 <0>        -0.1149
      3 C3          0.7830    0.0194   -1.4905 C.2       1 <0>        -0.1634
      4 C4          0.7403    0.3635   -2.9545 C.3       1 <0>         0.1280
      5 H1          1.1883    1.3450   -3.1095 H         1 <0>         0.0762
      6 C5          1.5184   -0.6825   -3.7527 C.3       1 <0>        -0.0679
      7 H2          1.5271   -0.3977   -4.8048 H         1 <0>         0.0784
      8 C6          2.9573   -0.7880   -3.2478 C.3       1 <0>        -0.0903
      9 C7          2.9526   -1.0755   -1.7696 C.2       1 <0>        -0.1289
     10 C8          3.6075   -0.3062   -0.9375 C.2       1 <0>        -0.1756
     11 C9          3.5039   -0.5527    0.5475 C.3       1 <0>         0.1471
     12 H3          4.5038   -0.6103    0.9776 H         1 <0>         0.0578
     13 C10         2.7328    0.5998    1.1980 C.3       1 <0>        -0.1014
     14 C11         1.2471    0.5155    0.8459 C.3       1 <0>        -0.0768
     15 O1          2.8128   -1.7817    0.7802 O.3       1 <0>        -0.5597
     16 C12         4.4832    0.8026   -1.4598 C.3       1 <0>        -0.1117
     17 C13         0.8324   -2.0421   -3.6046 C.3       1 <0>        -0.0860
     18 C14        -0.5417   -1.9958   -4.2758 C.3       1 <0>        -0.1422
     19 C15         1.6891   -3.1208   -4.2704 C.3       1 <0>        -0.1528
     20 O2         -0.6179    0.3854   -3.3983 O.3       1 <0>        -0.3386
     21 C16        -1.2480    1.6624   -3.2784 C.3       1 <0>         0.2181
     22 H4         -1.0910    2.0522   -2.2727 H         1 <0>         0.0595
     23 C17        -2.7493    1.5175   -3.5412 C.3       1 <0>         0.0658
     24 H5         -3.1897    0.8649   -2.7875 H         1 <0>         0.0672
     25 C18        -3.4077    2.8988   -3.4703 C.3       1 <0>         0.0796
     26 H6         -3.2939    3.3058   -2.4656 H         1 <0>         0.0767
     27 C19        -2.7278    3.8288   -4.4799 C.3       1 <0>         0.0926
     28 H7         -3.1529    4.8290   -4.3975 H         1 <0>         0.0733
     29 C20        -1.2274    3.8843   -4.1808 C.3       1 <0>         0.1161
     30 H8         -1.0701    4.3034   -3.1870 H         1 <0>         0.0813
     31 O3         -0.6833    2.5639   -4.2325 O.3       1 <0>        -0.3695
     32 C21        -0.5319    4.7641   -5.2215 C.3       1 <0>         0.0801
     33 O4          0.8470    4.9108   -4.8763 O.3       1 <0>        -0.3490
     34 C22         1.6037    5.6594   -5.6941 C.2       1 <0>         0.4593
     35 O5          1.1115    6.1732   -6.6707 O.2       1 <0>        -0.5102
     36 C23         3.0670    5.8591   -5.3942 C.3       1 <0>        -0.1466
     37 O6         -2.9341    3.3298   -5.8030 O.3       1 <0>        -0.5274
     38 O7         -4.7968    2.7829   -3.7847 O.3       1 <0>        -0.5477
     39 O8         -2.9548    0.9552   -4.8388 O.3       1 <0>        -0.5227
     40 H9          2.2577    2.5494   -1.2725 H         1 <0>         0.0686
     41 H10         0.5694    2.5960   -1.8342 H         1 <0>         0.0610
     42 H11         0.9584    3.0151   -0.1486 H         1 <0>         0.0615
     43 H12         0.5834   -0.9968   -1.1748 H         1 <0>         0.1143
     44 H13         3.4683   -1.5949   -3.7731 H         1 <0>         0.0824
     45 H14         3.4770    0.1520   -3.4332 H         1 <0>         0.0687
     46 H15         2.4067   -1.9307   -1.3914 H         1 <0>         0.1151
     47 H16         2.8502    0.5464    2.2803 H         1 <0>         0.0689
     48 H17         3.1343    1.5484    0.8415 H         1 <0>         0.0756
     49 H18         0.6807    1.1802    1.4982 H         1 <0>         0.0631
     50 H19         0.8993   -0.5088    0.9798 H         1 <0>         0.0802
     51 H20         3.2445   -2.5552    0.3923 H         1 <0>         0.3768
     52 H21         3.8662    1.5453   -1.9654 H         1 <0>         0.0647
     53 H22         5.0093    1.2722   -0.6287 H         1 <0>         0.0572
     54 H23         5.2078    0.3925   -2.1632 H         1 <0>         0.0639
     55 H24         0.7123   -2.2751   -2.5466 H         1 <0>         0.0704
     56 H25        -0.4600   -1.4869   -5.2363 H         1 <0>         0.0535
     57 H26        -0.9039   -3.0119   -4.4327 H         1 <0>         0.0444
     58 H27        -1.2403   -1.4557   -3.6367 H         1 <0>         0.0698
     59 H28         2.6681   -3.1537   -3.7922 H         1 <0>         0.0568
     60 H29         1.2005   -4.0894   -4.1648 H         1 <0>         0.0524
     61 H30         1.8092   -2.8878   -5.3284 H         1 <0>         0.0532
     62 H31        -0.6130    4.2984   -6.2037 H         1 <0>         0.0916
     63 H32        -1.0071    5.7448   -5.2441 H         1 <0>         0.0846
     64 H33         3.5704    4.8924   -5.3811 H         1 <0>         0.1004
     65 H34         3.5126    6.4904   -6.1629 H         1 <0>         0.1025
     66 H35         3.1763    6.3388   -4.4216 H         1 <0>         0.0999
     67 H36        -3.8645    3.2640   -6.0579 H         1 <0>         0.3859
     68 H37        -5.2881    2.2023   -3.1875 H         1 <0>         0.3864
     69 H38        -2.5595    0.0805   -4.9554 H         1 <0>         0.3792
@<TRIPOS>BOND
     1    1    2 1
     2    1   40 1
     3    1   41 1
     4    1   42 1
     5    2   14 1
     6    2    3 2
     7    3    4 1
     8    3   43 1
     9    4    5 1
    10    4    6 1
    11    4   20 1
    12    6    7 1
    13    6    8 1
    14    6   17 1
    15    8    9 1
    16    8   44 1
    17    8   45 1
    18    9   10 2
    19    9   46 1
    20   10   11 1
    21   10   16 1
    22   11   12 1
    23   11   13 1
    24   11   15 1
    25   13   14 1
    26   13   47 1
    27   13   48 1
    28   14   49 1
    29   14   50 1
    30   15   51 1
    31   16   52 1
    32   16   53 1
    33   16   54 1
    34   17   18 1
    35   17   19 1
    36   17   55 1
    37   18   56 1
    38   18   57 1
    39   18   58 1
    40   19   59 1
    41   19   60 1
    42   19   61 1
    43   20   21 1
    44   21   22 1
    45   21   31 1
    46   21   23 1
    47   23   24 1
    48   23   25 1
    49   23   39 1
    50   25   26 1
    51   25   27 1
    52   25   38 1
    53   27   28 1
    54   27   29 1
    55   27   37 1
    56   29   30 1
    57   29   31 1
    58   29   32 1
    59   32   33 1
    60   32   62 1
    61   32   63 1
    62   33   34 1
    63   34   35 2
    64   34   36 1
    65   36   64 1
    66   36   65 1
    67   36   66 1
    68   37   67 1
    69   38   68 1
    70   39   69 1
@<TRIPOS>MOLECULE
ZINC42903921
   56    58     0     0     0
SMALL
USER_CHARGES

@<TRIPOS>ATOM
      1 C1         -0.6124    1.3006    0.1937 C.3       1 <0>        -0.1599
      2 C2         -0.6819   -0.2267    0.1366 C.3       1 <0>         0.2064
      3 H1         -1.7100   -0.5500    0.2998 H         1 <0>         0.0989
      4 C3          0.2041   -0.8102    1.2070 C.ar      1 <0>        -0.0931
      5 C4          1.5690   -0.8931    1.0031 C.ar      1 <0>        -0.1101
      6 C5          2.3859   -1.4276    1.9819 C.ar      1 <0>        -0.1700
      7 C6          1.8372   -1.8812    3.1707 C.ar      1 <0>         0.1086
      8 C7          0.4635   -1.7973    3.3760 C.ar      1 <0>         0.1044
      9 C8         -0.3491   -1.2561    2.3928 C.ar      1 <0>        -0.1587
     10 O1         -0.0797   -2.2412    4.5411 O.3       1 <0>        -0.3044
     11 C9         -1.4969   -2.1236    4.6824 C.3       1 <0>         0.0244
     12 O2          2.6395   -2.4076    4.1344 O.3       1 <0>        -0.2955
     13 C10         4.0492   -2.3504    3.9076 C.3       1 <0>         0.0781
     14 C11         4.5046   -3.5820    3.0979 C.3       1 <0>        -0.1485
     15 C12         5.8877   -3.9398    3.6963 C.3       1 <0>        -0.1240
     16 C13         5.6876   -3.6656    5.2075 C.3       1 <0>        -0.1240
     17 C14         4.8014   -2.4036    5.2489 C.3       1 <0>        -0.1221
     18 N1         -0.2279   -0.6874   -1.1779 N.am      1 <0>        -0.7330
     19 C15        -1.0932   -0.7385   -2.2099 C.2       1 <0>         0.7052
     20 O3         -2.2505   -0.4021   -2.0500 O.2       1 <0>        -0.5645
     21 N2         -0.6755   -1.1623   -3.4192 N.am      1 <0>        -0.6859
     22 C16        -1.5395   -1.1115   -4.5124 C.ar      1 <0>         0.1975
     23 C17        -2.4733   -0.0849   -4.6120 C.ar      1 <0>        -0.1299
     24 C18        -3.3277   -0.0317   -5.6900 C.ar      1 <0>        -0.0346
     25 C19        -3.2562   -1.0103   -6.6853 C.ar      1 <0>        -0.1616
     26 C20        -2.3167   -2.0398   -6.5823 C.ar      1 <0>        -0.0623
     27 C21        -1.4620   -2.0843   -5.5041 C.ar      1 <0>        -0.1584
     28 C22        -4.1710   -0.9567   -7.8421 C.2       1 <0>         0.5650
     29 O4         -4.9881   -0.0607   -7.9301 O.2       1 <0>        -0.5403
     30 N3         -4.1007   -1.9012   -8.8011 N.am      1 <0>        -0.8525
     31 H2          0.4157    1.6239    0.0305 H         1 <0>         0.0600
     32 H3         -1.2532    1.7227   -0.5805 H         1 <0>         0.0672
     33 H4         -0.9502    1.6434    1.1717 H         1 <0>         0.0702
     34 H5          1.9979   -0.5399    0.0770 H         1 <0>         0.1244
     35 H6          3.4518   -1.4918    1.8199 H         1 <0>         0.1378
     36 H7         -1.4152   -1.1865    2.5512 H         1 <0>         0.1383
     37 H8         -1.7838   -1.0748    4.6063 H         1 <0>         0.0565
     38 H9         -1.9891   -2.6931    3.8940 H         1 <0>         0.0560
     39 H10        -1.7986   -2.5133    5.6546 H         1 <0>         0.1024
     40 H11         4.3042   -1.4357    3.3725 H         1 <0>         0.0761
     41 H12         3.8054   -4.4073    3.2331 H         1 <0>         0.0804
     42 H13         4.5994   -3.3303    2.0416 H         1 <0>         0.0706
     43 H14         6.1241   -4.9895    3.5221 H         1 <0>         0.0722
     44 H15         6.6646   -3.2945    3.2861 H         1 <0>         0.0702
     45 H16         5.1796   -4.5043    5.6834 H         1 <0>         0.0704
     46 H17         6.6459   -3.4748    5.6907 H         1 <0>         0.0713
     47 H18         5.4221   -1.5150    5.3644 H         1 <0>         0.0777
     48 H19         4.0912   -2.4730    6.0728 H         1 <0>         0.0825
     49 H20         0.6955   -0.9558   -1.3054 H         1 <0>         0.3978
     50 H21         0.2262   -1.5027   -3.5290 H         1 <0>         0.4093
     51 H22        -2.5280    0.6710   -3.8425 H         1 <0>         0.1440
     52 H23        -4.0528    0.7650   -5.7663 H         1 <0>         0.1404
     53 H24        -2.2591   -2.7978   -7.3496 H         1 <0>         0.1305
     54 H25        -0.7330   -2.8773   -5.4260 H         1 <0>         0.1327
     55 H26        -3.4488   -2.6161   -8.7309 H         1 <0>         0.4002
     56 H27        -4.7020   -1.8660   -9.5614 H         1 <0>         0.4057
@<TRIPOS>BOND
     1    1    2 1
     2    1   31 1
     3    1   32 1
     4    1   33 1
     5    2    3 1
     6    2    4 1
     7    2   18 1
     8    4    9 ar
     9    4    5 ar
    10    5    6 ar
    11    5   34 1
    12    6    7 ar
    13    6   35 1
    14    7    8 ar
    15    7   12 1
    16    8    9 ar
    17    8   10 1
    18    9   36 1
    19   10   11 1
    20   11   37 1
    21   11   38 1
    22   11   39 1
    23   12   13 1
    24   13   17 1
    25   13   14 1
    26   13   40 1
    27   14   15 1
    28   14   41 1
    29   14   42 1
    30   15   16 1
    31   15   43 1
    32   15   44 1
    33   16   17 1
    34   16   45 1
    35   16   46 1
    36   17   47 1
    37   17   48 1
    38   18   19 am
    39   18   49 1
    40   19   20 2
    41   19   21 am
    42   21   22 1
    43   21   50 1
    44   22   27 ar
    45   22   23 ar
    46   23   24 ar
    47   23   51 1
    48   24   25 ar
    49   24   52 1
    50   25   26 ar
    51   25   28 1
    52   26   27 ar
    53   26   53 1
    54   27   54 1
    55   28   29 2
    56   28   30 am
    57   30   55 1
    58   30   56 1
@<TRIPOS>MOLECULE
ZINC06553060
   49    51     0     0     0
SMALL
USER_CHARGES

@<TRIPOS>ATOM
      1 C1         -0.4374    1.5148   -0.2217 C.3       1 <0>        -0.1532
      2 C2         -0.3122   -0.0093   -0.1725 C.3       1 <0>         0.0506
      3 O1          0.4499   -0.4611   -1.2938 O.3       1 <0>        -0.3031
      4 C3          0.6558   -1.8011   -1.4007 C.ar      1 <0>         0.1090
      5 C4          0.1310   -2.6623   -0.4505 C.ar      1 <0>        -0.1779
      6 C5          0.3409   -4.0242   -0.5610 C.ar      1 <0>        -0.0870
      7 C6          1.0744   -4.5302   -1.6180 C.ar      1 <0>        -0.1187
      8 C7          1.6012   -3.6765   -2.5692 C.ar      1 <0>        -0.1041
      9 C8          1.3893   -2.3109   -2.4678 C.ar      1 <0>         0.0887
     10 O2          1.9017   -1.4702   -3.4059 O.3       1 <0>        -0.4850
     11 C9         -0.2306   -4.9594    0.4734 C.3       1 <0>         0.1801
     12 H1         -0.2850   -4.4493    1.4352 H         1 <0>         0.1190
     13 C10        -1.6353   -5.3984    0.0464 C.3       1 <0>        -0.1492
     14 H2         -2.3017   -4.5359    0.0380 H         1 <0>         0.1416
     15 C11        -2.1487   -6.4356    1.0509 C.3       1 <0>         0.3371
     16 N1         -1.1876   -7.5362    1.1383 N.am      1 <0>        -0.7406
     17 C12         0.1205   -7.3395    0.9163 C.2       1 <0>         0.7325
     18 O3          0.8778   -8.2859    1.0120 O.2       1 <0>        -0.5675
     19 N2          0.6271   -6.1394    0.5932 N.am      1 <0>        -0.7120
     20 C13        -2.3045   -5.7824    2.4257 C.3       1 <0>         0.4171
     21 F1         -3.2176   -4.7260    2.3394 F         1 <0>        -0.1643
     22 F2         -2.7731   -6.7302    3.3418 F         1 <0>        -0.1695
     23 F3         -1.0651   -5.2939    2.8530 F         1 <0>        -0.1639
     24 O4         -3.4127   -6.9388    0.6139 O.3       1 <0>        -0.5113
     25 C14        -1.5785   -6.0073   -1.3310 C.2       1 <0>         0.4225
     26 O5         -0.6146   -6.6632   -1.6646 O.2       1 <0>        -0.4129
     27 C15        -2.6920   -5.8059   -2.2706 C.ar      1 <0>        -0.1559
     28 C16        -3.8029   -5.0450   -1.8912 C.ar      1 <0>        -0.0500
     29 C17        -4.8424   -4.8601   -2.7770 C.ar      1 <0>        -0.1221
     30 C18        -4.7892   -5.4263   -4.0407 C.ar      1 <0>        -0.0022
     31 C19        -3.6920   -6.1812   -4.4233 C.ar      1 <0>        -0.1223
     32 C20        -2.6426   -6.3696   -3.5501 C.ar      1 <0>        -0.0434
     33 Cl1        -6.1037   -5.1891   -5.1495 Cl        1 <0>        -0.0569
     34 H3          0.5561    1.9621   -0.1898 H         1 <0>         0.0672
     35 H4         -0.9388    1.8085   -1.1439 H         1 <0>         0.0680
     36 H5         -1.0186    1.8594    0.6336 H         1 <0>         0.0804
     37 H6          0.1892   -0.3031    0.7497 H         1 <0>         0.0634
     38 H7         -1.3056   -0.4567   -0.2043 H         1 <0>         0.0632
     39 H8         -0.4417   -2.2695    0.3766 H         1 <0>         0.1362
     40 H9          1.2365   -5.5948   -1.7007 H         1 <0>         0.1459
     41 H10         2.1741   -4.0743   -3.3938 H         1 <0>         0.1404
     42 H11         2.7918   -1.1508   -3.2037 H         1 <0>         0.3901
     43 H12        -1.5031   -8.4259    1.3615 H         1 <0>         0.4257
     44 H13         1.5802   -6.0521    0.4351 H         1 <0>         0.4255
     45 H14        -3.7975   -7.6014    1.2038 H         1 <0>         0.4028
     46 H15        -3.8460   -4.6037   -0.9064 H         1 <0>         0.1383
     47 H16        -5.7006   -4.2729   -2.4855 H         1 <0>         0.1421
     48 H17        -3.6575   -6.6197   -5.4097 H         1 <0>         0.1421
     49 H18        -1.7863   -6.9548   -3.8511 H         1 <0>         0.1435
@<TRIPOS>BOND
     1    1    2 1
     2    1   34 1
     3    1   35 1
     4    1   36 1
     5    2    3 1
     6    2   37 1
     7    2   38 1
     8    3    4 1
     9    4    9 ar
    10    4    5 ar
    11    5    6 ar
    12    5   39 1
    13    6    7 ar
    14    6   11 1
    15    7    8 ar
    16    7   40 1
    17    8    9 ar
    18    8   41 1
    19    9   10 1
    20   10   42 1
    21   11   12 1
    22   11   19 1
    23   11   13 1
    24   13   14 1
    25   13   15 1
    26   13   25 1
    27   15   16 1
    28   15   20 1
    29   15   24 1
    30   16   17 am
    31   16   43 1
    32   17   18 2
    33   17   19 am
    34   19   44 1
    35   20   21 1
    36   20   22 1
    37   20   23 1
    38   24   45 1
    39   25   26 2
    40   25   27 1
    41   27   32 ar
    42   27   28 ar
    43   28   29 ar
    44   28   46 1
    45   29   30 ar
    46   29   47 1
    47   30   31 ar
    48   30   33 1
    49   31   32 ar
    50   31   48 1
    51   32   49 1
@<TRIPOS>MOLECULE
ZINC62824767
   39    40     0     0     0
SMALL
USER_CHARGES

@<TRIPOS>ATOM
      1 C1         -0.0285    1.0011   -0.6563 C.ar      1 <0>        -0.0684
      2 C2          1.1205    1.7660   -0.6620 C.ar      1 <0>        -0.1501
      3 C3          2.2687    1.3020   -0.0346 C.ar      1 <0>         0.2108
      4 C4          2.2542    0.0514    0.6050 C.ar      1 <0>        -0.1676
      5 C5          1.0823   -0.7117    0.6020 C.ar      1 <0>        -0.0259
      6 C6         -0.0471   -0.2336   -0.0263 C.ar      1 <0>        -0.1322
      7 I1         -1.8015   -1.3787   -0.0294 I         1 <0>        -0.0622
      8 C7          3.4642   -0.4525    1.2733 C.2       1 <0>         0.5304
      9 O1          3.4777   -1.5817    1.7442 O.co2     1 <0>        -0.6666
     10 O2          4.4569    0.2576    1.3582 O.co2     1 <0>        -0.6923
     11 N1          3.4282    2.0716   -0.0396 N.am      1 <0>        -0.6497
     12 C8          3.3478    3.4104   -0.1719 C.2       1 <0>         0.7022
     13 O3          2.2614    3.9561   -0.1823 O.2       1 <0>        -0.5825
     14 N2          4.4717    4.1443   -0.2925 N.am      1 <0>        -0.7500
     15 C9          4.3844    5.5997   -0.4362 C.3       1 <0>         0.1462
     16 C10         5.7926    6.1860   -0.5537 C.3       1 <0>        -0.1655
     17 C11         5.7014    7.7059   -0.7038 C.3       1 <0>         0.0008
     18 N3          7.0535    8.2689   -0.8166 N.4       1 <0>        -0.4793
     19 C12         6.9659    9.7282   -0.9607 C.3       1 <0>        -0.0820
     20 C13         7.4753   10.3409   -2.2668 C.3       1 <0>        -0.1552
     21 C14         8.2771   10.5166   -0.9756 C.3       1 <0>        -0.1557
     22 H1         -0.9201    1.3690   -1.1422 H         1 <0>         0.1241
     23 H2          1.1264    2.7266   -1.1555 H         1 <0>         0.1466
     24 H3          1.0626   -1.6744    1.0911 H         1 <0>         0.1381
     25 H4          4.2942    1.6444    0.0520 H         1 <0>         0.4264
     26 H5          5.3385    3.7090   -0.2842 H         1 <0>         0.4018
     27 H6          3.8137    5.8426   -1.3326 H         1 <0>         0.0755
     28 H7          3.8867    6.0217    0.4368 H         1 <0>         0.0756
     29 H8          6.3633    5.9430    0.3426 H         1 <0>         0.0967
     30 H9          6.2903    5.7639   -1.4268 H         1 <0>         0.0950
     31 H10         5.1307    7.9489   -1.6001 H         1 <0>         0.1365
     32 H11         5.2037    8.1280    0.1693 H         1 <0>         0.1368
     33 H12         7.5818    8.0440    0.0132 H         1 <0>         0.4299
     34 H13         6.1025   10.1963   -0.4879 H         1 <0>         0.1781
     35 H14         7.8754    9.6612   -3.0192 H         1 <0>         0.1211
     36 H15         6.9469   11.2123   -2.6536 H         1 <0>         0.1328
     37 H16         8.2761   11.5035   -0.5129 H         1 <0>         0.1330
     38 H17         9.2047    9.9525   -0.8785 H         1 <0>         0.1209
     39 H18         7.5142    7.8781   -1.6248 H         1 <0>         0.4260
@<TRIPOS>BOND
     1    1    6 ar
     2    1    2 ar
     3    1   22 1
     4    2    3 ar
     5    2   23 1
     6    3    4 ar
     7    3   11 1
     8    4    5 ar
     9    4    8 1
    10    5    6 ar
    11    5   24 1
    12    6    7 1
    13    8    9 2
    14    8   10 1
    15   11   12 am
    16   11   25 1
    17   12   13 2
    18   12   14 am
    19   14   15 1
    20   14   26 1
    21   15   16 1
    22   15   27 1
    23   15   28 1
    24   16   17 1
    25   16   29 1
    26   16   30 1
    27   17   18 1
    28   17   31 1
    29   17   32 1
    30   18   19 1
    31   18   33 1
    32   18   39 1
    33   19   21 1
    34   19   20 1
    35   19   34 1
    36   20   21 1
    37   20   35 1
    38   20   36 1
    39   21   37 1
    40   21   38 1
@<TRIPOS>MOLECULE
ZINC01123693
   48    50     0     0     0
SMALL
USER_CHARGES
2,2-diphenyl-N-[(4-sulfamoylphenyl)thiocarbamoyl]acetamide
@<TRIPOS>ATOM
      1 C1          0.2612    1.5557    0.7951 C.ar      1 <0>        -0.1118
      2 C2         -0.9218    2.2266    0.5477 C.ar      1 <0>        -0.1132
      3 C3         -0.9054    3.5845    0.2892 C.ar      1 <0>        -0.1092
      4 C4          0.2951    4.2695    0.2680 C.ar      1 <0>        -0.0905
      5 C5          1.4787    3.5975    0.5097 C.ar      1 <0>        -0.1078
      6 C6          1.4618    2.2406    0.7735 C.ar      1 <0>        -0.1157
      7 C7          0.3136    5.7488   -0.0190 C.3       1 <0>        -0.0162
      8 C8         -0.3076    6.4923    1.1353 C.ar      1 <0>        -0.0769
      9 C9          0.4676    7.3295    1.9156 C.ar      1 <0>        -0.1053
     10 C10        -0.1033    8.0152    2.9714 C.ar      1 <0>        -0.1223
     11 C11        -1.4472    7.8559    3.2531 C.ar      1 <0>        -0.1109
     12 C12        -2.2212    7.0143    2.4762 C.ar      1 <0>        -0.1194
     13 C13        -1.6515    6.3327    1.4172 C.ar      1 <0>        -0.0802
     14 C14        -0.4704    6.0265   -1.2757 C.2       1 <0>         0.4941
     15 O1         -1.4381    6.7560   -1.2377 O.2       1 <0>        -0.3849
     16 N1         -0.0960    5.4638   -2.4417 N.am      1 <0>        -0.6359
     17 C15        -0.7972    5.7122   -3.5656 C.2       1 <0>         0.5060
     18 S1         -2.1635    6.7423   -3.5120 S.2       1 <0>        -0.4661
     19 N2         -0.4228    5.1496   -4.7317 N.pl3     1 <0>        -0.6303
     20 C16        -1.0784    5.4960   -5.9177 C.ar      1 <0>         0.1878
     21 C17        -1.3950    4.5161   -6.8497 C.ar      1 <0>        -0.1445
     22 C18        -2.0470    4.8607   -8.0173 C.ar      1 <0>        -0.0085
     23 C19        -2.3749    6.1813   -8.2641 C.ar      1 <0>        -0.6727
     24 C20        -2.0560    7.1601   -7.3408 C.ar      1 <0>        -0.0077
     25 C21        -1.4091    6.8214   -6.1686 C.ar      1 <0>        -0.0984
     26 S2         -3.2013    6.6176   -9.7578 S.o2      1 <0>         2.7014
     27 O2         -3.8734    5.4488  -10.2065 O.2       1 <0>        -0.9621
     28 O3         -3.8831    7.8381   -9.5032 O.2       1 <0>        -0.9592
     29 N3         -2.0337    6.9536  -10.8832 N.pl3     1 <0>        -1.2499
     30 H1          0.2480    0.4956    1.0008 H         1 <0>         0.1255
     31 H2         -1.8594    1.6906    0.5602 H         1 <0>         0.1259
     32 H3         -1.8300    4.1094    0.1000 H         1 <0>         0.1231
     33 H4          2.4167    4.1326    0.4928 H         1 <0>         0.1267
     34 H5          2.3865    1.7156    0.9623 H         1 <0>         0.1270
     35 H6          1.3434    6.0801   -0.1526 H         1 <0>         0.1173
     36 H7          1.5185    7.4508    1.6980 H         1 <0>         0.1217
     37 H8          0.5015    8.6725    3.5786 H         1 <0>         0.1242
     38 H9         -1.8924    8.3888    4.0803 H         1 <0>         0.1231
     39 H10        -3.2711    6.8896    2.6965 H         1 <0>         0.1237
     40 H11        -2.2562    5.6751    0.8103 H         1 <0>         0.1205
     41 H12         0.6781    4.8802   -2.4721 H         1 <0>         0.4122
     42 H13         0.3014    4.5044   -4.7484 H         1 <0>         0.4113
     43 H14        -1.1356    3.4851   -6.6594 H         1 <0>         0.1380
     44 H15        -2.2975    4.0986   -8.7404 H         1 <0>         0.1499
     45 H16        -2.3134    8.1906   -7.5365 H         1 <0>         0.1505
     46 H17        -1.1609    7.5862   -5.4476 H         1 <0>         0.1516
     47 H18        -1.0960    6.8869  -10.6439 H         1 <0>         0.4164
     48 H19        -2.2875    7.2169  -11.7816 H         1 <0>         0.4216
@<TRIPOS>BOND
     1    1    6 ar
     2    1    2 ar
     3    1   30 1
     4    2    3 ar
     5    2   31 1
     6    3    4 ar
     7    3   32 1
     8    4    5 ar
     9    4    7 1
    10    5    6 ar
    11    5   33 1
    12    6   34 1
    13    7    8 1
    14    7   14 1
    15    7   35 1
    16    8   13 ar
    17    8    9 ar
    18    9   10 ar
    19    9   36 1
    20   10   11 ar
    21   10   37 1
    22   11   12 ar
    23   11   38 1
    24   12   13 ar
    25   12   39 1
    26   13   40 1
    27   14   15 2
    28   14   16 am
    29   16   17 1
    30   16   41 1
    31   17   18 2
    32   17   19 1
    33   19   20 1
    34   19   42 1
    35   20   25 ar
    36   20   21 ar
    37   21   22 ar
    38   21   43 1
    39   22   23 ar
    40   22   44 1
    41   23   24 ar
    42   23   26 1
    43   24   25 ar
    44   24   45 1
    45   25   46 1
    46   26   27 2
    47   26   28 2
    48   26   29 1
    49   29   47 1
    50   29   48 1
@<TRIPOS>MOLECULE
ZINC22645639
   54    55     0     0     0
SMALL
USER_CHARGES
N-[4-[N'-[[(1S,2R,3R)-2,3-dimethylcyclohexyl]carbamothioyl]hydrazino]-4-oxo-butyl]thiophene-3-carboxamide
@<TRIPOS>ATOM
      1 C1         -2.4864   -6.7689   -1.2299 C.3       1 <0>        -0.1516
      2 C2         -1.1804   -6.2444   -0.6299 C.3       1 <0>        -0.0820
      3 H1         -0.3317   -6.5962   -1.2349 H         1 <0>         0.0765
      4 C3         -1.0340   -6.7604    0.8031 C.3       1 <0>        -0.1206
      5 C4          0.2720   -6.2359    1.4031 C.3       1 <0>        -0.1157
      6 C5          0.2513   -4.7061    1.4115 C.3       1 <0>        -0.1293
      7 C6          0.1050   -4.1901   -0.0214 C.3       1 <0>         0.1522
      8 H2          0.9647   -4.4993   -0.6341 H         1 <0>         0.1181
      9 C7         -1.2011   -4.7146   -0.6215 C.3       1 <0>        -0.0928
     10 H3         -1.3063   -4.3437   -1.6517 H         1 <0>         0.0766
     11 C8         -2.3816   -4.2252    0.2199 C.3       1 <0>        -0.1575
     12 N1          0.0851   -2.7253   -0.0134 N.pl3     1 <0>        -0.6913
     13 C9          1.2430   -2.0356   -0.0207 C.2       1 <0>         0.5680
     14 S1          2.7370   -2.8713   -0.0395 S.2       1 <0>        -0.6101
     15 N2          1.2247   -0.6880   -0.0133 N.pl3     1 <0>        -0.4849
     16 N3          0.0021   -0.0041    0.0020 N.am      1 <0>        -0.5594
     17 C10        -0.0162    1.3436    0.0094 C.2       1 <0>         0.5229
     18 O1          1.0258    1.9642    0.0028 O.2       1 <0>        -0.5258
     19 C11        -1.3314    2.0792    0.0197 C.3       1 <0>        -0.1290
     20 C12        -1.0722    3.5871    0.0266 C.3       1 <0>        -0.1178
     21 C13        -2.4075    4.3340    0.0370 C.3       1 <0>         0.1221
     22 N4         -2.1594    5.7778    0.0437 N.am      1 <0>        -0.7375
     23 C14        -3.1956    6.6396    0.0533 C.2       1 <0>         0.5752
     24 O2         -4.3367    6.2186    0.0564 O.2       1 <0>        -0.5405
     25 C15        -2.9463    8.0903    0.0600 C.2       1 <0>        -0.1748
     26 C16        -4.0303    9.0402    0.0647 C.2       1 <0>        -0.1127
     27 C17        -3.7006   10.3466    0.0754 C.2       1 <0>        -0.1909
     28 S2         -1.9198   10.3136    0.0663 S.3       1 <0>         0.1282
     29 C18        -1.6648    8.6009    0.0562 C.2       1 <0>        -0.1754
     30 H4         -2.4714   -7.8688   -1.2359 H         1 <0>         0.0584
     31 H5         -2.5916   -6.3980   -2.2601 H         1 <0>         0.0551
     32 H6         -3.3351   -6.4170   -0.6250 H         1 <0>         0.0586
     33 H7         -1.8827   -6.4086    1.4080 H         1 <0>         0.0656
     34 H8         -1.0190   -7.8603    0.7971 H         1 <0>         0.0660
     35 H9          0.3772   -6.6068    2.4333 H         1 <0>         0.0672
     36 H10         1.1207   -6.5878    0.7983 H         1 <0>         0.0695
     37 H11        -0.5974   -4.3542    2.0164 H         1 <0>         0.0625
     38 H12         1.1903   -4.3290    1.8429 H         1 <0>         0.0804
     39 H13        -2.3965   -3.1253    0.2260 H         1 <0>         0.0425
     40 H14        -2.2763   -4.5962    1.2501 H         1 <0>         0.0701
     41 H15        -3.3206   -4.6023   -0.2115 H         1 <0>         0.0682
     42 H16        -0.8749   -2.1883   -0.0014 H         1 <0>         0.4003
     43 H17         2.1697   -0.1251   -0.0193 H         1 <0>         0.4880
     44 H18        -0.9429   -0.5670    0.0080 H         1 <0>         0.4370
     45 H19        -1.9088    1.8105   -0.8772 H         1 <0>         0.1070
     46 H20        -1.9002    1.8008    0.9191 H         1 <0>         0.1067
     47 H21        -0.4948    3.8558    0.9235 H         1 <0>         0.0822
     48 H22        -0.5033    3.8655   -0.8728 H         1 <0>         0.0823
     49 H23        -2.9849    4.0653   -0.8599 H         1 <0>         0.0700
     50 H24        -2.9764    4.0555    0.9363 H         1 <0>         0.0700
     51 H25        -1.1274    6.1585    0.0409 H         1 <0>         0.4202
     52 H26        -5.0614    8.7189    0.0639 H         1 <0>         0.1491
     53 H27        -4.3563   11.2047    0.0828 H         1 <0>         0.1919
     54 H28        -0.7286    8.0625    0.0484 H         1 <0>         0.1907
@<TRIPOS>BOND
     1    1    2 1
     2    1   30 1
     3    1   31 1
     4    1   32 1
     5    2    3 1
     6    2    9 1
     7    2    4 1
     8    4    5 1
     9    4   33 1
    10    4   34 1
    11    5    6 1
    12    5   35 1
    13    5   36 1
    14    6    7 1
    15    6   37 1
    16    6   38 1
    17    7    8 1
    18    7    9 1
    19    7   12 1
    20    9   10 1
    21    9   11 1
    22   11   39 1
    23   11   40 1
    24   11   41 1
    25   12   13 1
    26   12   42 1
    27   13   14 2
    28   13   15 1
    29   15   16 1
    30   15   43 1
    31   16   17 am
    32   16   44 1
    33   17   18 2
    34   17   19 1
    35   19   20 1
    36   19   45 1
    37   19   46 1
    38   20   21 1
    39   20   47 1
    40   20   48 1
    41   21   22 1
    42   21   49 1
    43   21   50 1
    44   22   23 am
    45   22   51 1
    46   23   24 2
    47   23   25 1
    48   25   29 2
    49   25   26 1
    50   26   27 2
    51   26   52 1
    52   27   28 1
    53   27   53 1
    54   28   29 1
    55   29   54 1
@<TRIPOS>MOLECULE
ZINC43553319
   63    66     0     0     0
SMALL
USER_CHARGES

@<TRIPOS>ATOM
      1 C1         -0.2398    1.5162   -1.0131 C.3       1 <0>        -0.1663
      2 C2         -0.2121    0.0210   -0.8275 C.2       1 <0>         0.5106
      3 O1          0.8468   -0.5704   -0.8261 O.2       1 <0>        -0.5078
      4 N1         -1.3640   -0.6591   -0.6630 N.am      1 <0>        -0.6131
      5 C3         -1.3385   -2.0385   -0.4918 C.2       1 <0>         0.2377
      6 N2         -2.3526   -2.8585   -0.3189 N.2       1 <0>        -0.5199
      7 C4         -2.1728   -4.1636   -0.1612 C.2       1 <0>         0.0987
      8 C5         -0.8834   -4.5820   -0.1996 C.2       1 <0>        -0.2496
      9 S1         -0.0027   -3.0653   -0.4554 S.3       1 <0>         0.2083
     10 C6         -0.3685   -5.9687   -0.0628 C.3       1 <0>        -0.0364
     11 C7         -1.4912   -6.9850    0.2205 C.3       1 <0>        -0.0442
     12 H1         -1.6537   -7.0234    1.3148 H         1 <0>         0.0783
     13 C8         -2.7904   -6.5579   -0.4517 C.3       1 <0>        -0.0357
     14 C9         -3.2608   -5.1939    0.0651 C.3       1 <0>         0.0189
     15 H2         -3.4494   -5.2842    1.1418 H         1 <0>         0.0932
     16 C10        -4.5522   -4.7713   -0.6285 C.3       1 <0>        -0.1310
     17 C11        -5.0978   -3.5339    0.0364 C.2       1 <0>         0.5192
     18 O2         -4.5088   -3.0396    0.9744 O.2       1 <0>        -0.4882
     19 N3         -6.2404   -2.9765   -0.4112 N.am      1 <0>        -0.6835
     20 C12        -6.6920   -1.7706    0.1365 C.ar      1 <0>         0.1538
     21 C13        -7.3404   -0.8414   -0.6663 C.ar      1 <0>        -0.1507
     22 C14        -7.7848    0.3479   -0.1227 C.ar      1 <0>        -0.1022
     23 C15        -7.5848    0.6138    1.2195 C.ar      1 <0>        -0.1390
     24 C16        -6.9391   -0.3093    2.0215 C.ar      1 <0>        -0.1028
     25 C17        -6.4977   -1.5031    1.4853 C.ar      1 <0>        -0.1210
     26 C18        -2.5943   -6.5542   -1.9630 C.3       1 <0>        -0.1034
     27 C19        -2.2703   -7.9726   -2.4327 C.3       1 <0>        -0.1497
     28 C20        -1.0290   -8.5252   -1.7580 C.3       1 <0>         0.1284
     29 H3         -0.9887   -9.6124   -1.9687 H         1 <0>         0.0513
     30 C21        -0.9881   -8.3489   -0.2494 C.3       1 <0>        -0.0336
     31 C22        -1.7275   -9.5039    0.4390 C.3       1 <0>        -0.1501
     32 C23         0.4933   -8.4972    0.1873 C.3       1 <0>         0.0810
     33 O3          0.9911   -9.7667   -0.2400 O.3       1 <0>        -0.5684
     34 O4          0.1411   -7.9525   -2.3538 O.3       1 <0>        -0.5628
     35 C24        -3.9407   -7.5160   -0.1076 C.3       1 <0>        -0.1634
     36 H4          0.7786    1.8868   -1.1295 H         1 <0>         0.1046
     37 H5         -0.8196    1.7612   -1.9030 H         1 <0>         0.0971
     38 H6         -0.6985    1.9822   -0.1410 H         1 <0>         0.0975
     39 H7         -2.2109   -0.1862   -0.6642 H         1 <0>         0.4232
     40 H8          0.1504   -6.2250   -0.9883 H         1 <0>         0.1042
     41 H9          0.3489   -5.9796    0.7664 H         1 <0>         0.0732
     42 H10        -4.3484   -4.5598   -1.6782 H         1 <0>         0.0962
     43 H11        -5.2840   -5.5758   -0.5554 H         1 <0>         0.1034
     44 H12        -6.7496   -3.4112   -1.1130 H         1 <0>         0.4068
     45 H13        -7.4966   -1.0483   -1.7147 H         1 <0>         0.1220
     46 H14        -8.2889    1.0712   -0.7466 H         1 <0>         0.1238
     47 H15        -7.9333    1.5445    1.6422 H         1 <0>         0.1211
     48 H16        -6.7841   -0.0985    3.0693 H         1 <0>         0.1227
     49 H17        -5.9980   -2.2258    2.1133 H         1 <0>         0.1368
     50 H18        -3.4999   -6.2202   -2.4703 H         1 <0>         0.0625
     51 H19        -1.7725   -5.8869   -2.2283 H         1 <0>         0.0713
     52 H20        -3.1184   -8.6362   -2.2790 H         1 <0>         0.0742
     53 H21        -2.0898   -7.9357   -3.5202 H         1 <0>         0.0617
     54 H22        -2.7709   -9.5066    0.1237 H         1 <0>         0.0650
     55 H23        -1.2618  -10.4497    0.1621 H         1 <0>         0.0691
     56 H24        -1.6749   -9.3758    1.5202 H         1 <0>         0.0594
     57 H25         1.0869   -7.7030   -0.2656 H         1 <0>         0.0619
     58 H26         0.5608   -8.4271    1.2730 H         1 <0>         0.0385
     59 H27         1.9140   -9.9281   -0.0005 H         1 <0>         0.3774
     60 H28         0.2292   -8.1329   -3.2998 H         1 <0>         0.3743
     61 H29        -4.0085   -7.6285    0.9745 H         1 <0>         0.0604
     62 H30        -4.8776   -7.1111   -0.4902 H         1 <0>         0.0632
     63 H31        -3.7523   -8.4883   -0.5629 H         1 <0>         0.0719
@<TRIPOS>BOND
     1    1    2 1
     2    1   36 1
     3    1   37 1
     4    1   38 1
     5    2    3 2
     6    2    4 am
     7    4    5 1
     8    4   39 1
     9    5    9 1
    10    5    6 2
    11    6    7 1
    12    7   14 1
    13    7    8 2
    14    8    9 1
    15    8   10 1
    16   10   11 1
    17   10   40 1
    18   10   41 1
    19   11   12 1
    20   11   30 1
    21   11   13 1
    22   13   14 1
    23   13   26 1
    24   13   35 1
    25   14   15 1
    26   14   16 1
    27   16   17 1
    28   16   42 1
    29   16   43 1
    30   17   18 2
    31   17   19 am
    32   19   20 1
    33   19   44 1
    34   20   25 ar
    35   20   21 ar
    36   21   22 ar
    37   21   45 1
    38   22   23 ar
    39   22   46 1
    40   23   24 ar
    41   23   47 1
    42   24   25 ar
    43   24   48 1
    44   25   49 1
    45   26   27 1
    46   26   50 1
    47   26   51 1
    48   27   28 1
    49   27   52 1
    50   27   53 1
    51   28   29 1
    52   28   30 1
    53   28   34 1
    54   30   31 1
    55   30   32 1
    56   31   54 1
    57   31   55 1
    58   31   56 1
    59   32   33 1
    60   32   57 1
    61   32   58 1
    62   33   59 1
    63   34   60 1
    64   35   61 1
    65   35   62 1
    66   35   63 1
@<TRIPOS>MOLECULE
ZINC58139654
   50    52     0     0     0
SMALL
USER_CHARGES

@<TRIPOS>ATOM
      1 C1          0.0210    1.4388    0.1218 C.ar      1 <0>        -0.1187
      2 C2          1.2136    2.1377    0.1093 C.ar      1 <0>        -0.1206
      3 C3          2.4149    1.4543    0.0814 C.ar      1 <0>        -0.0972
      4 C4          2.4235    0.0720    0.0662 C.ar      1 <0>        -0.0784
      5 C5          1.2309   -0.6268    0.0796 C.ar      1 <0>        -0.1134
      6 C6          0.0296    0.0566    0.1061 C.ar      1 <0>        -0.1205
      7 C7          3.7331   -0.6730    0.0347 C.3       1 <0>         0.0839
      8 N1          4.1834   -0.9301    1.4092 N.3       1 <0>        -0.5017
      9 C8          3.3551   -1.9816    2.0528 C.3       1 <0>         0.0379
     10 C9          4.2532   -2.4799    3.2128 C.3       1 <0>        -0.1132
     11 C10         5.6698   -2.4400    2.5949 C.3       1 <0>        -0.1411
     12 C11         5.5704   -1.4433    1.4253 C.3       1 <0>         0.0500
     13 C12         6.0576   -3.8050    2.0874 C.2       1 <0>         0.5312
     14 O1          6.2916   -3.9699    0.9088 O.2       1 <0>        -0.4902
     15 N2          6.1445   -4.8425    2.9433 N.am      1 <0>        -0.6621
     16 C13         6.4106   -6.1282    2.4595 C.ar      1 <0>         0.1556
     17 C14         7.2602   -6.3006    1.3737 C.ar      1 <0>        -0.1322
     18 C15         7.5233   -7.5696    0.8954 C.ar      1 <0>        -0.0813
     19 C16         6.9429   -8.6711    1.4947 C.ar      1 <0>        -0.1541
     20 C17         6.0926   -8.5054    2.5805 C.ar      1 <0>         0.1783
     21 C18         5.8308   -7.2325    3.0669 C.ar      1 <0>        -0.1400
     22 N3          5.5049   -9.6215    3.1866 N.am      1 <0>        -0.6844
     23 C19         4.2554   -9.5378    3.6848 C.2       1 <0>         0.7056
     24 O2          3.6706   -8.4718    3.6839 O.2       1 <0>        -0.5754
     25 N4          3.6541  -10.6358    4.1841 N.am      1 <0>        -0.8603
     26 C20         6.6858   -1.9477    3.6274 C.3       1 <0>         0.4711
     27 F1          6.7150   -2.8317    4.7113 F         1 <0>        -0.1779
     28 F2          7.9545   -1.8869    3.0409 F         1 <0>        -0.1716
     29 F3          6.3171   -0.6742    4.0740 F         1 <0>        -0.1603
     30 H1         -0.9174    1.9727    0.1481 H         1 <0>         0.1209
     31 H2          1.2069    3.2176    0.1212 H         1 <0>         0.1222
     32 H3          3.3467    2.0003    0.0709 H         1 <0>         0.1228
     33 H4          1.2377   -1.7067    0.0674 H         1 <0>         0.1173
     34 H5         -0.9021   -0.4894    0.1161 H         1 <0>         0.1212
     35 H6          3.5996   -1.6206   -0.4871 H         1 <0>         0.0524
     36 H7          4.4798   -0.0735   -0.4861 H         1 <0>         0.0887
     37 H8          2.4278   -1.5583    2.4388 H         1 <0>         0.0996
     38 H9          3.1476   -2.7904    1.3522 H         1 <0>         0.0551
     39 H10         4.1865   -1.8077    4.0683 H         1 <0>         0.1039
     40 H11         3.9854   -3.4971    3.4984 H         1 <0>         0.0937
     41 H12         5.7896   -1.9504    0.4856 H         1 <0>         0.0924
     42 H13         6.2690   -0.6207    1.5781 H         1 <0>         0.0988
     43 H14         6.0226   -4.6979    3.8947 H         1 <0>         0.4152
     44 H15         7.7151   -5.4416    0.9029 H         1 <0>         0.1399
     45 H16         8.1838   -7.7010    0.0511 H         1 <0>         0.1332
     46 H17         7.1503   -9.6619    1.1183 H         1 <0>         0.1285
     47 H18         5.1739   -7.1014    3.9140 H         1 <0>         0.1457
     48 H19         5.9967  -10.4553    3.2481 H         1 <0>         0.4098
     49 H20         4.1206  -11.4863    4.1849 H         1 <0>         0.3999
     50 H21         2.7548  -10.5756    4.5427 H         1 <0>         0.4200
@<TRIPOS>BOND
     1    1    6 ar
     2    1    2 ar
     3    1   30 1
     4    2    3 ar
     5    2   31 1
     6    3    4 ar
     7    3   32 1
     8    4    5 ar
     9    4    7 1
    10    5    6 ar
    11    5   33 1
    12    6   34 1
    13    7    8 1
    14    7   35 1
    15    7   36 1
    16    8   12 1
    17    8    9 1
    18    9   10 1
    19    9   37 1
    20    9   38 1
    21   10   11 1
    22   10   39 1
    23   10   40 1
    24   11   12 1
    25   11   13 1
    26   11   26 1
    27   12   41 1
    28   12   42 1
    29   13   14 2
    30   13   15 am
    31   15   16 1
    32   15   43 1
    33   16   21 ar
    34   16   17 ar
    35   17   18 ar
    36   17   44 1
    37   18   19 ar
    38   18   45 1
    39   19   20 ar
    40   19   46 1
    41   20   21 ar
    42   20   22 1
    43   21   47 1
    44   22   23 am
    45   22   48 1
    46   23   24 2
    47   23   25 am
    48   25   49 1
    49   25   50 1
    50   26   27 1
    51   26   28 1
    52   26   29 1
@<TRIPOS>MOLECULE
ZINC66122897
   51    52     0     0     0
SMALL
USER_CHARGES

@<TRIPOS>ATOM
      1 C1          0.6975   -1.2419    1.3987 C.3       1 <0>        -0.1469
      2 C2         -0.1199   -2.1599    0.4876 C.3       1 <0>        -0.0558
      3 C3         -0.2936   -3.5230    1.1604 C.3       1 <0>        -0.1443
      4 C4         -1.4737   -1.5458    0.2399 C.ar      1 <0>        -0.0729
      5 C5         -2.3307   -1.3118    1.2976 C.ar      1 <0>        -0.1138
      6 C6         -3.5731   -0.7489    1.0711 C.ar      1 <0>        -0.1028
      7 C7         -3.9619   -0.4184   -0.2143 C.ar      1 <0>        -0.1177
      8 C8         -3.1098   -0.6498   -1.2761 C.ar      1 <0>        -0.0632
      9 C9         -1.8586   -1.2094   -1.0512 C.ar      1 <0>         0.1139
     10 N1         -0.9907   -1.4399   -2.1239 N.pl3     1 <0>        -0.6269
     11 C10        -1.4447   -2.0430   -3.2404 C.2       1 <0>         0.5537
     12 S1         -3.1064   -2.4265   -3.3909 S.2       1 <0>        -0.5563
     13 N2         -0.5905   -2.3442   -4.2385 N.pl3     1 <0>        -0.4651
     14 N3          0.7693   -2.0303   -4.1153 N.am      1 <0>        -0.5464
     15 C11         1.6235   -2.3315   -5.1134 C.2       1 <0>         0.5182
     16 O1          1.2150   -2.8742   -6.1181 O.2       1 <0>        -0.5122
     17 C12         3.0862   -1.9939   -4.9809 C.3       1 <0>         0.1121
     18 N4          3.7970   -2.4195   -6.1891 N.am      1 <0>        -0.7243
     19 C13         5.1254   -2.2181   -6.2957 C.2       1 <0>         0.5207
     20 O2          5.7323   -1.6844   -5.3914 O.2       1 <0>        -0.5239
     21 C14         5.8565   -2.6559   -7.5386 C.3       1 <0>        -0.0995
     22 C15         7.3192   -2.3183   -7.4061 C.ar      1 <0>        -0.0727
     23 C16         7.7869   -1.0907   -7.8363 C.ar      1 <0>        -0.1047
     24 C17         9.1287   -0.7810   -7.7148 C.ar      1 <0>        -0.1188
     25 C18        10.0026   -1.6988   -7.1627 C.ar      1 <0>        -0.1173
     26 C19         9.5347   -2.9261   -6.7317 C.ar      1 <0>        -0.1188
     27 C20         8.1923   -3.2341   -6.8493 C.ar      1 <0>        -0.1048
     28 H1          1.6767   -1.6861    1.5778 H         1 <0>         0.0611
     29 H2          0.8212   -0.2708    0.9194 H         1 <0>         0.0557
     30 H3          0.1770   -1.1149    2.3479 H         1 <0>         0.0630
     31 H4          0.4006   -2.2869   -0.4616 H         1 <0>         0.0630
     32 H5         -0.8141   -3.3960    2.1096 H         1 <0>         0.0622
     33 H6         -0.8760   -4.1770    0.5114 H         1 <0>         0.0571
     34 H7          0.6855   -3.9671    1.3396 H         1 <0>         0.0597
     35 H8         -2.0302   -1.5691    2.3025 H         1 <0>         0.1273
     36 H9         -4.2415   -0.5672    1.8998 H         1 <0>         0.1261
     37 H10        -4.9332    0.0208   -0.3880 H         1 <0>         0.1293
     38 H11        -3.4144   -0.3921   -2.2797 H         1 <0>         0.1449
     39 H12        -0.0622   -1.1656   -2.0641 H         1 <0>         0.3991
     40 H13        -0.9172   -2.7782   -5.0421 H         1 <0>         0.4617
     41 H14         1.0960   -1.5963   -3.3117 H         1 <0>         0.4233
     42 H15         3.2005   -0.9175   -4.8523 H         1 <0>         0.1099
     43 H16         3.5011   -2.5093   -4.1147 H         1 <0>         0.1098
     44 H17         3.3116   -2.8463   -6.9124 H         1 <0>         0.4149
     45 H18         5.7423   -3.7323   -7.6672 H         1 <0>         0.1076
     46 H19         5.4417   -2.1405   -8.4048 H         1 <0>         0.1076
     47 H20         7.1042   -0.3736   -8.2676 H         1 <0>         0.1197
     48 H21         9.4942    0.1779   -8.0515 H         1 <0>         0.1228
     49 H22        11.0510   -1.4571   -7.0684 H         1 <0>         0.1222
     50 H23        10.2176   -3.6432   -6.3007 H         1 <0>         0.1228
     51 H24         7.8261   -4.1915   -6.5092 H         1 <0>         0.1197
@<TRIPOS>BOND
     1    1    2 1
     2    1   28 1
     3    1   29 1
     4    1   30 1
     5    2    3 1
     6    2    4 1
     7    2   31 1
     8    3   32 1
     9    3   33 1
    10    3   34 1
    11    4    9 ar
    12    4    5 ar
    13    5    6 ar
    14    5   35 1
    15    6    7 ar
    16    6   36 1
    17    7    8 ar
    18    7   37 1
    19    8    9 ar
    20    8   38 1
    21    9   10 1
    22   10   11 1
    23   10   39 1
    24   11   12 2
    25   11   13 1
    26   13   14 1
    27   13   40 1
    28   14   15 am
    29   14   41 1
    30   15   16 2
    31   15   17 1
    32   17   18 1
    33   17   42 1
    34   17   43 1
    35   18   19 am
    36   18   44 1
    37   19   20 2
    38   19   21 1
    39   21   22 1
    40   21   45 1
    41   21   46 1
    42   22   27 ar
    43   22   23 ar
    44   23   24 ar
    45   23   47 1
    46   24   25 ar
    47   24   48 1
    48   25   26 ar
    49   25   49 1
    50   26   27 ar
    51   26   50 1
    52   27   51 1
@<TRIPOS>MOLECULE
ZINC00182729
   34    37     0     0     0
SMALL
USER_CHARGES
amino-oxo-(2-thienyl)BLAHcarbonitrile
@<TRIPOS>ATOM
      1 C1          1.2052   -0.6957   -0.0133 C.ar      1 <0>        -0.1497
      2 C2          0.0021   -0.0041    0.0020 C.ar      1 <0>        -0.0504
      3 C3         -0.0166    1.3742    0.0096 C.ar      1 <0>        -0.1626
      4 C4          1.1819    2.0800    0.0019 C.ar      1 <0>         0.2088
      5 C5          2.3980    1.3752   -0.0126 C.ar      1 <0>        -0.1222
      6 C6          2.3942   -0.0216   -0.0207 C.ar      1 <0>        -0.0418
      7 C7          3.6580    2.1323   -0.0190 C.2       1 <0>         0.2197
      8 C8          3.5995    3.4934   -0.0113 C.2       1 <0>        -0.2417
      9 C9          2.3517    4.1429    0.0003 C.2       1 <0>         0.5608
     10 O1          2.3189    5.3620    0.0044 O.2       1 <0>        -0.5165
     11 N1          1.1953    3.4596    0.0075 N.am      1 <0>        -0.6354
     12 H1          0.3292    3.9594    0.0171 H         1 <0>         0.4276
     13 C10         4.8622    4.3137   -0.0163 C.3       1 <0>         0.1511
     14 H2          4.7504    5.1443   -0.7133 H         1 <0>         0.1166
     15 C11         6.0308    3.4662   -0.4386 C.2       1 <0>        -0.2653
     16 C12         5.9547    2.1137   -0.4212 C.2       1 <0>         0.4362
     17 O2          4.8360    1.4777   -0.0305 O.3       1 <0>        -0.2309
     18 N2          7.0444    1.3756   -0.8109 N.pl3     1 <0>        -0.8242
     19 C13         7.2437    4.0983   -0.8628 C.1       1 <0>         0.2722
     20 N3          8.2058    4.5998   -1.1993 N.1       1 <0>        -0.4322
     21 C14         5.1099    4.8571    1.3673 C.2       1 <0>        -0.1276
     22 C15         5.2088    6.1467    1.7728 C.2       1 <0>        -0.1423
     23 C16         5.4382    6.4133    3.1096 C.2       1 <0>        -0.1524
     24 C17         5.5683    5.3771    3.9736 C.2       1 <0>        -0.1751
     25 S1          5.3572    3.9692    2.8963 S.3       1 <0>         0.0270
     26 H3          1.2020   -1.7756   -0.0199 H         1 <0>         0.1358
     27 H4         -0.9290   -0.5513    0.0077 H         1 <0>         0.1379
     28 H5         -0.9578    1.9037    0.0169 H         1 <0>         0.1421
     29 H6          3.3266   -0.5666   -0.0324 H         1 <0>         0.1405
     30 H7          7.0019    0.4066   -0.8024 H         1 <0>         0.4136
     31 H8          7.8568    1.8231   -1.0948 H         1 <0>         0.4288
     32 H9          5.1069    6.9539    1.0626 H         1 <0>         0.1336
     33 H10         5.5173    7.4320    3.4596 H         1 <0>         0.1335
     34 H11         5.7516    5.3977    5.0377 H         1 <0>         0.1844
@<TRIPOS>BOND
     1    1    6 ar
     2    1    2 ar
     3    1   26 1
     4    2    3 ar
     5    2   27 1
     6    3    4 ar
     7    3   28 1
     8    4   11 1
     9    4    5 ar
    10    5    6 ar
    11    5    7 1
    12    6   29 1
    13    7   17 1
    14    7    8 2
    15    8    9 1
    16    8   13 1
    17    9   10 2
    18    9   11 am
    19   11   12 1
    20   13   14 1
    21   13   15 1
    22   13   21 1
    23   15   16 2
    24   15   19 1
    25   16   17 1
    26   16   18 1
    27   18   30 1
    28   18   31 1
    29   19   20 3
    30   21   25 1
    31   21   22 2
    32   22   23 1
    33   22   32 1
    34   23   24 2
    35   23   33 1
    36   24   25 1
    37   24   34 1
@<TRIPOS>MOLECULE
ZINC35612044
   36    37     0     0     0
SMALL
USER_CHARGES

@<TRIPOS>ATOM
      1 C1         -0.0184    1.5028    0.0103 C.3       1 <0>        -0.1205
      2 C2          0.0021   -0.0041    0.0020 C.ar      1 <0>        -0.1020
      3 C3          0.0058   -0.6929   -1.2042 C.ar      1 <0>         0.2123
      4 C4          0.0246   -2.0818   -1.2075 C.ar      1 <0>        -0.0936
      5 C5          0.0396   -2.7741   -0.0123 C.ar      1 <0>        -0.6228
      6 C6          0.0354   -2.0865    1.1870 C.ar      1 <0>        -0.0664
      7 C7          0.0229   -0.7023    1.1944 C.ar      1 <0>        -0.0099
      8 Cl1         0.0261    0.1570    2.7028 Cl        1 <0>        -0.0524
      9 S1          0.0634   -4.5360   -0.0163 S.o2      1 <0>         2.6940
     10 O1         -0.4760   -4.9523    1.2306 O.2       1 <0>        -0.9462
     11 O2         -0.4877   -4.9467   -1.2600 O.2       1 <0>        -0.9482
     12 N1          1.6518   -5.0041   -0.0249 N.pl3     1 <0>        -0.9938
     13 C8          2.3657   -5.2070   -1.2929 C.3       1 <0>         0.1128
     14 C9          2.9873   -6.6071   -1.2903 C.3       1 <0>        -0.1305
     15 C10         3.8606   -6.7708   -0.0442 C.3       1 <0>        -0.1523
     16 C11         2.9958   -6.6239    1.2098 C.3       1 <0>         0.0941
     17 H1          2.2043   -7.3731    1.1957 H         1 <0>         0.0631
     18 C12         2.3758   -5.2185    1.2355 C.3       1 <0>         0.1242
     19 O3          3.8062   -6.8080    2.3723 O.3       1 <0>        -0.5640
     20 N2         -0.0099    0.0096   -2.4113 N.pl3     1 <0>        -0.8696
     21 H2          1.0042    1.8801    0.0026 H         1 <0>         0.0802
     22 H3         -0.5455    1.8639   -0.8728 H         1 <0>         0.0697
     23 H4         -0.5286    1.8543    0.9071 H         1 <0>         0.0814
     24 H5          0.0271   -2.6200   -2.1439 H         1 <0>         0.1442
     25 H6          0.0464   -2.6304    2.1200 H         1 <0>         0.1480
     26 H7          1.6660   -5.1194   -2.1242 H         1 <0>         0.0976
     27 H8          3.1516   -4.4584   -1.3937 H         1 <0>         0.0744
     28 H9          2.1959   -7.3565   -1.2808 H         1 <0>         0.0722
     29 H10         3.5995   -6.7350   -2.1830 H         1 <0>         0.0829
     30 H11         4.3238   -7.7574   -0.0524 H         1 <0>         0.0705
     31 H12         4.6368   -6.0055   -0.0417 H         1 <0>         0.0747
     32 H13         3.1626   -4.4709    1.3368 H         1 <0>         0.0815
     33 H14         1.6829   -5.1385    2.0731 H         1 <0>         0.1028
     34 H15         4.2337   -7.6740    2.4206 H         1 <0>         0.3841
     35 H16        -0.0233    0.9795   -2.4079 H         1 <0>         0.4030
     36 H17        -0.0073   -0.4724   -3.2531 H         1 <0>         0.4046
@<TRIPOS>BOND
     1    1    2 1
     2    1   21 1
     3    1   22 1
     4    1   23 1
     5    2    7 ar
     6    2    3 ar
     7    3    4 ar
     8    3   20 1
     9    4    5 ar
    10    4   24 1
    11    5    6 ar
    12    5    9 1
    13    6    7 ar
    14    6   25 1
    15    7    8 1
    16    9   10 2
    17    9   11 2
    18    9   12 1
    19   12   18 1
    20   12   13 1
    21   13   14 1
    22   13   26 1
    23   13   27 1
    24   14   15 1
    25   14   28 1
    26   14   29 1
    27   15   16 1
    28   15   30 1
    29   15   31 1
    30   16   17 1
    31   16   18 1
    32   16   19 1
    33   18   32 1
    34   18   33 1
    35   19   34 1
    36   20   35 1
    37   20   36 1
@<TRIPOS>MOLECULE
ZINC40486465
   34    35     0     0     0
SMALL
USER_CHARGES

@<TRIPOS>ATOM
      1 C1          0.0388    1.6229    0.0689 C.ar      1 <0>        -0.1111
      2 C2          1.1186    1.9048    0.8758 C.ar      1 <0>        -0.0638
      3 C3          2.2444    1.0753    0.8496 C.ar      1 <0>        -0.1361
      4 C4          2.2635   -0.0417   -0.0025 C.ar      1 <0>         0.1593
      5 C5          1.1659   -0.3095   -0.8082 C.ar      1 <0>        -0.1032
      6 C6          0.0610    0.5194   -0.7710 C.ar      1 <0>        -0.0801
      7 Br1        -1.4303    0.1469   -1.8724 Br        1 <0>        -0.0596
      8 N1          3.3776   -0.8749   -0.0386 N.am      1 <0>        -0.6218
      9 C7          3.2180   -2.2094   -0.1400 C.2       1 <0>         0.5171
     10 O1          2.1113   -2.6769   -0.3052 O.2       1 <0>        -0.5370
     11 C8          4.4149   -3.1204   -0.0482 C.3       1 <0>        -0.1290
     12 H1          4.9010   -2.9865    0.9182 H         1 <0>         0.1271
     13 C9          5.4025   -2.7820   -1.1686 C.3       1 <0>        -0.1343
     14 C10         6.5768   -3.7634   -1.1144 C.3       1 <0>        -0.1436
     15 C11         6.0444   -5.1938   -1.2231 C.3       1 <0>        -0.0091
     16 N2          5.1270   -5.4643   -0.1097 N.4       1 <0>        -0.5032
     17 C12         3.9625   -4.5748   -0.1953 C.3       1 <0>         0.0109
     18 C13         3.4014    1.3708    1.7085 C.2       1 <0>         0.5253
     19 O2          3.4017    2.3722    2.4114 O.co2     1 <0>        -0.6637
     20 O3          4.3636    0.6151    1.7199 O.co2     1 <0>        -0.6926
     21 H2         -0.8315    2.2618    0.0935 H         1 <0>         0.1317
     22 H3          1.0962    2.7655    1.5277 H         1 <0>         0.1439
     23 H4          1.1754   -1.1665   -1.4653 H         1 <0>         0.1386
     24 H5          4.2689   -0.4953    0.0092 H         1 <0>         0.4273
     25 H6          4.9019   -2.8655   -2.1333 H         1 <0>         0.0881
     26 H7          5.7709   -1.7649   -1.0348 H         1 <0>         0.1043
     27 H8          7.2564   -3.5640   -1.9429 H         1 <0>         0.1158
     28 H9          7.1080   -3.6435   -0.1702 H         1 <0>         0.0934
     29 H10         5.5137   -5.3127   -2.1677 H         1 <0>         0.1303
     30 H11         6.8780   -5.8952   -1.1850 H         1 <0>         0.1330
     31 H12         4.8195   -6.4243   -0.1542 H         1 <0>         0.4326
     32 H13         3.2595   -4.8185    0.6012 H         1 <0>         0.1421
     33 H14         3.4757   -4.7074   -1.1615 H         1 <0>         0.1390
     34 H15         5.6051   -5.3065    0.7647 H         1 <0>         0.4282
@<TRIPOS>BOND
     1    1    6 ar
     2    1    2 ar
     3    1   21 1
     4    2    3 ar
     5    2   22 1
     6    3    4 ar
     7    3   18 1
     8    4    5 ar
     9    4    8 1
    10    5    6 ar
    11    5   23 1
    12    6    7 1
    13    8    9 am
    14    8   24 1
    15    9   10 2
    16    9   11 1
    17   11   12 1
    18   11   17 1
    19   11   13 1
    20   13   14 1
    21   13   25 1
    22   13   26 1
    23   14   15 1
    24   14   27 1
    25   14   28 1
    26   15   16 1
    27   15   29 1
    28   15   30 1
    29   16   17 1
    30   16   31 1
    31   16   34 1
    32   17   32 1
    33   17   33 1
    34   18   19 2
    35   18   20 1
@<TRIPOS>MOLECULE
ZINC49686216
   36    38     0     0     0
SMALL
USER_CHARGES

@<TRIPOS>ATOM
      1 C1         -0.0184    1.5028    0.0103 C.3       1 <0>        -0.0725
      2 C2          0.0021   -0.0041    0.0020 C.2       1 <0>        -0.1410
      3 C3         -1.0392   -0.8719    0.0017 C.2       1 <0>        -0.1503
      4 C4         -0.7802   -2.2296   -0.0075 C.2       1 <0>        -0.1486
      5 C5          0.5074   -2.6532   -0.0160 C.2       1 <0>        -0.1227
      6 S1          1.4039   -1.1093   -0.0179 S.3       1 <0>         0.0413
      7 C6          1.0430   -4.0617   -0.0269 C.3       1 <0>        -0.0760
      8 C7         -1.9124   -3.2242   -0.0076 C.3       1 <0>         0.1839
      9 N1         -2.1146   -3.7341    1.3508 N.pl3     1 <0>        -0.7364
     10 C8         -3.1167   -4.6758    1.6019 C.ar      1 <0>         0.2368
     11 C9         -3.9179   -5.1325    0.5599 C.ar      1 <0>        -0.1811
     12 C10        -4.9072   -6.0615    0.8025 C.ar      1 <0>        -0.0644
     13 C11        -5.1088   -6.5466    2.0906 C.ar      1 <0>         0.0532
     14 C12        -4.3067   -6.0900    3.1384 C.ar      1 <0>         0.1712
     15 C13        -3.3071   -5.1576    2.8872 C.ar      1 <0>        -0.2042
     16 N2         -4.4955   -6.5647    4.4332 N.am      1 <0>        -0.6346
     17 H1         -3.9334   -6.2407    5.1543 H         1 <0>         0.4214
     18 C14        -5.4584   -7.4737    4.6869 C.2       1 <0>         0.5091
     19 O1         -5.6266   -7.8903    5.8155 O.2       1 <0>        -0.4696
     20 C15        -6.3150   -7.9623    3.5686 C.2       1 <0>         0.5055
     21 O2         -7.1879   -8.7811    3.7770 O.2       1 <0>        -0.4763
     22 N3         -6.1117   -7.4854    2.3239 N.am      1 <0>        -0.6281
     23 H2         -6.6641   -7.7966    1.5898 H         1 <0>         0.4209
     24 H3          1.0042    1.8801    0.0026 H         1 <0>         0.0730
     25 H4         -0.5455    1.8639   -0.8728 H         1 <0>         0.0819
     26 H5         -0.5286    1.8543    0.9071 H         1 <0>         0.0816
     27 H6         -2.0560   -0.5079    0.0090 H         1 <0>         0.1337
     28 H7          1.1674   -4.3952   -1.0571 H         1 <0>         0.0818
     29 H8          2.0064   -4.0880    0.4823 H         1 <0>         0.0757
     30 H9          0.3427   -4.7207    0.4863 H         1 <0>         0.0840
     31 H10        -2.8244   -2.7365   -0.3521 H         1 <0>         0.0694
     32 H11        -1.6690   -4.0517   -0.6740 H         1 <0>         0.0711
     33 H12        -1.5531   -3.4184    2.0759 H         1 <0>         0.4028
     34 H13        -3.7646   -4.7579   -0.4414 H         1 <0>         0.1335
     35 H14        -5.5271   -6.4131   -0.0089 H         1 <0>         0.1387
     36 H15        -2.6816   -4.8056    3.6942 H         1 <0>         0.1353
@<TRIPOS>BOND
     1    1    2 1
     2    1   24 1
     3    1   25 1
     4    1   26 1
     5    2    6 1
     6    2    3 2
     7    3    4 1
     8    3   27 1
     9    4    5 2
    10    4    8 1
    11    5    6 1
    12    5    7 1
    13    7   28 1
    14    7   29 1
    15    7   30 1
    16    8    9 1
    17    8   31 1
    18    8   32 1
    19    9   10 1
    20    9   33 1
    21   10   15 ar
    22   10   11 ar
    23   11   12 ar
    24   11   34 1
    25   12   13 ar
    26   12   35 1
    27   13   22 1
    28   13   14 ar
    29   14   15 ar
    30   14   16 1
    31   15   36 1
    32   16   17 1
    33   16   18 am
    34   18   19 2
    35   18   20 1
    36   20   21 2
    37   20   22 am
    38   22   23 1
@<TRIPOS>MOLECULE
ZINC09244686
   35    38     0     0     0
SMALL
USER_CHARGES

@<TRIPOS>ATOM
      1 C1         -0.0166    1.3723    0.0096 C.ar      1 <0>        -0.1222
      2 C2          1.1697    2.0914    0.0021 C.ar      1 <0>        -0.0996
      3 C3          2.3836    1.4374   -0.0137 C.ar      1 <0>        -0.1046
      4 C4          2.4236    0.0506   -0.0219 C.ar      1 <0>         0.0708
      5 C5          1.2229   -0.6826   -0.0134 C.ar      1 <0>         0.0648
      6 C6          0.0021   -0.0041    0.0020 C.ar      1 <0>        -0.0668
      7 N1          1.5557   -2.0020   -0.0225 N.2       1 <0>        -0.4988
      8 C7          2.8516   -2.1247   -0.0348 C.2       1 <0>         0.5148
      9 N2          3.4367   -0.8824   -0.0386 N.pl3     1 <0>        -0.4933
     10 C8          4.8835   -0.6701   -0.0619 C.3       1 <0>         0.2861
     11 H1          5.1544    0.0668    0.6942 H         1 <0>         0.1051
     12 C9          5.5889   -1.9672    0.2274 C.2       1 <0>        -0.2960
     13 C10         4.9599   -3.1675    0.2212 C.2       1 <0>         0.5168
     14 N3          3.6107   -3.2867   -0.0415 N.pl3     1 <0>        -0.6238
     15 N4          5.6888   -4.3017    0.4857 N.pl3     1 <0>        -0.8447
     16 C11         6.9897   -1.9317    0.5223 C.1       1 <0>         0.2747
     17 N5          8.1010   -1.9036    0.7563 N.1       1 <0>        -0.4371
     18 C12         5.2952   -0.1681   -1.4219 C.ar      1 <0>        -0.1184
     19 C13         5.0465   -0.9344   -2.5453 C.ar      1 <0>        -0.0580
     20 C14         5.4232   -0.4749   -3.7931 C.ar      1 <0>        -0.1533
     21 C15         6.0498    0.7534   -3.9178 C.ar      1 <0>         0.1096
     22 C16         6.2983    1.5201   -2.7919 C.ar      1 <0>        -0.1510
     23 C17         5.9160    1.0609   -1.5457 C.ar      1 <0>        -0.0708
     24 F1          6.4188    1.2034   -5.1370 F         1 <0>        -0.1363
     25 H2         -0.9611    1.8959    0.0259 H         1 <0>         0.1321
     26 H3          1.1423    3.1711    0.0084 H         1 <0>         0.1320
     27 H4          3.3028    2.0045   -0.0201 H         1 <0>         0.1232
     28 H5         -0.9250   -0.5580    0.0083 H         1 <0>         0.1316
     29 H6          3.2080   -4.1500   -0.2247 H         1 <0>         0.4416
     30 H7          6.6382   -4.2354    0.6729 H         1 <0>         0.4240
     31 H8          5.2539   -5.1688    0.4852 H         1 <0>         0.4106
     32 H9          4.5581   -1.8927   -2.4478 H         1 <0>         0.1241
     33 H10         5.2292   -1.0739   -4.6706 H         1 <0>         0.1375
     34 H11         6.7872    2.4783   -2.8879 H         1 <0>         0.1402
     35 H12         6.1057    1.6607   -0.6679 H         1 <0>         0.1355
@<TRIPOS>BOND
     1    1    6 ar
     2    1    2 ar
     3    1   25 1
     4    2    3 ar
     5    2   26 1
     6    3    4 ar
     7    3   27 1
     8    4    9 1
     9    4    5 ar
    10    5    6 ar
    11    5    7 1
    12    6   28 1
    13    7    8 2
    14    8   14 1
    15    8    9 1
    16    9   10 1
    17   10   11 1
    18   10   12 1
    19   10   18 1
    20   12   13 2
    21   12   16 1
    22   13   14 1
    23   13   15 1
    24   14   29 1
    25   15   30 1
    26   15   31 1
    27   16   17 3
    28   18   23 ar
    29   18   19 ar
    30   19   20 ar
    31   19   32 1
    32   20   21 ar
    33   20   33 1
    34   21   22 ar
    35   21   24 1
    36   22   23 ar
    37   22   34 1
    38   23   35 1
@<TRIPOS>MOLECULE
ZINC11859078
   39    40     0     0     0
SMALL
USER_CHARGES
ethyl (4S,5R,6S)-4-hydroxy-6-(4-hydroxyphenyl)-2-oxo-4-(trifluoromethyl)hexahydropyrimidine-5-carboxylate
@<TRIPOS>ATOM
      1 C1          0.9641   -4.4119   -3.4117 C.3       1 <0>        -0.1544
      2 C2          1.5210   -3.8082   -2.1209 C.3       1 <0>         0.0647
      3 O1          1.1896   -2.3956   -2.0648 O.3       1 <0>        -0.3487
      4 C3          1.6088   -1.7136   -0.9874 C.2       1 <0>         0.4767
      5 O2          2.2320   -2.2782   -0.1198 O.2       1 <0>        -0.4653
      6 C4          1.3021   -0.2437   -0.8598 C.3       1 <0>        -0.0915
      7 H1          1.0025    0.1559   -1.8287 H         1 <0>         0.1414
      8 C5          2.5448    0.4997   -0.3585 C.3       1 <0>         0.2089
      9 H2          2.8864    0.0507    0.5741 H         1 <0>         0.1160
     10 N1          2.2041    1.9047   -0.1290 N.am      1 <0>        -0.7202
     11 C6          0.9608    2.2741    0.2131 C.2       1 <0>         0.7250
     12 O3          0.7334    3.4535    0.4020 O.2       1 <0>        -0.5656
     13 N2         -0.0416    1.3941    0.3548 N.am      1 <0>        -0.7344
     14 C7          0.1703   -0.0401    0.1530 C.3       1 <0>         0.3232
     15 C8         -1.1144   -0.6766   -0.3811 C.3       1 <0>         0.4263
     16 F1         -1.3907   -0.1704   -1.6557 F         1 <0>        -0.1607
     17 F2         -0.9514   -2.0641   -0.4556 F         1 <0>        -0.1573
     18 F3         -2.1759   -0.3774    0.4797 F         1 <0>        -0.1696
     19 O4          0.5260   -0.6498    1.3956 O.3       1 <0>        -0.5167
     20 C9          3.6379    0.4075   -1.3919 C.ar      1 <0>        -0.1334
     21 C10         3.6185    1.2430   -2.4934 C.ar      1 <0>        -0.0811
     22 C11         4.6223    1.1643   -3.4392 C.ar      1 <0>        -0.1435
     23 C12         5.6446    0.2385   -3.2887 C.ar      1 <0>         0.1227
     24 C13         5.6586   -0.6025   -2.1854 C.ar      1 <0>        -0.1440
     25 C14         4.6553   -0.5163   -1.2398 C.ar      1 <0>        -0.0749
     26 O5          6.6302    0.1553   -4.2205 O.3       1 <0>        -0.4980
     27 H3         -0.1191   -4.2918   -3.4312 H         1 <0>         0.0685
     28 H4          1.4017   -3.9017   -4.2698 H         1 <0>         0.0678
     29 H5          1.2129   -5.4722   -3.4538 H         1 <0>         0.0837
     30 H6          2.6042   -3.9283   -2.1014 H         1 <0>         0.0737
     31 H7          1.0834   -4.3184   -1.2628 H         1 <0>         0.0747
     32 H8          2.8912    2.5823   -0.2267 H         1 <0>         0.4281
     33 H9         -0.9257    1.7151    0.5918 H         1 <0>         0.4267
     34 H10        -0.1442   -0.5552    2.0862 H         1 <0>         0.3985
     35 H11         2.8201    1.9605   -2.6124 H         1 <0>         0.1316
     36 H12         4.6090    1.8199   -4.2974 H         1 <0>         0.1350
     37 H13         6.4531   -1.3243   -2.0662 H         1 <0>         0.1349
     38 H14         4.6658   -1.1709   -0.3808 H         1 <0>         0.1361
     39 H15         6.4416   -0.4645   -4.9384 H         1 <0>         0.3953
@<TRIPOS>BOND
     1    1    2 1
     2    1   27 1
     3    1   28 1
     4    1   29 1
     5    2    3 1
     6    2   30 1
     7    2   31 1
     8    3    4 1
     9    4    5 2
    10    4    6 1
    11    6    7 1
    12    6   14 1
    13    6    8 1
    14    8    9 1
    15    8   10 1
    16    8   20 1
    17   10   11 am
    18   10   32 1
    19   11   12 2
    20   11   13 am
    21   13   14 1
    22   13   33 1
    23   14   15 1
    24   14   19 1
    25   15   16 1
    26   15   17 1
    27   15   18 1
    28   19   34 1
    29   20   25 ar
    30   20   21 ar
    31   21   22 ar
    32   21   35 1
    33   22   23 ar
    34   22   36 1
    35   23   24 ar
    36   23   26 1
    37   24   25 ar
    38   24   37 1
    39   25   38 1
    40   26   39 1
@<TRIPOS>MOLECULE
ZINC13369903
   53    54     0     0     0
SMALL
USER_CHARGES

@<TRIPOS>ATOM
      1 C1          1.8143    1.6816    1.6013 C.3       1 <0>        -0.1519
      2 C2          1.9663    0.1921    1.2863 C.3       1 <0>        -0.1463
      3 C3          0.5915   -0.4784    1.3164 C.3       1 <0>        -0.1214
      4 H1          0.1262   -0.3101    2.2876 H         1 <0>         0.0843
      5 C4         -0.2910    0.1180    0.2179 C.3       1 <0>        -0.1494
      6 C5          0.7520   -1.9818    1.0815 C.3       1 <0>         0.0913
      7 H2         -0.2318   -2.4427    0.9928 H         1 <0>         0.1084
      8 C6          1.5027   -2.6048    2.2601 C.3       1 <0>         0.1272
      9 C7          0.7951   -2.2388    3.5664 C.3       1 <0>        -0.1419
     10 C8          1.5268   -4.1035    2.1047 C.2       1 <0>        -0.1083
     11 C9          2.6922   -4.7463    2.0179 C.2       1 <0>        -0.1387
     12 C10         2.7156   -6.2041    1.8667 C.2       1 <0>         0.1974
     13 C11         3.9231   -6.8626    1.7833 C.2       1 <0>        -0.2628
     14 C12         3.9536   -8.2556    1.6487 C.2       1 <0>         0.0693
     15 C13         5.1543   -8.9170    1.5356 C.2       1 <0>        -0.1914
     16 C14         5.2095  -10.2998    1.3658 C.2       1 <0>         0.3753
     17 O1          6.2903  -10.8506    1.2759 O.2       1 <0>        -0.4420
     18 C15         3.9489  -11.1208    1.2926 C.3       1 <0>         0.0703
     19 C16         2.8130  -10.2564    0.7351 C.3       1 <0>         0.1291
     20 H3          1.8851  -10.8283    0.7338 H         1 <0>         0.0911
     21 C17         2.6539   -9.0221    1.6251 C.3       1 <0>        -0.0929
     22 H4          2.3946   -9.3329    2.6372 H         1 <0>         0.1319
     23 C18         1.5576   -8.1124    1.0619 C.3       1 <0>         0.0716
     24 O2          1.5517   -6.8916    1.8158 O.3       1 <0>        -0.3070
     25 O3          3.1287   -9.8520   -0.5986 O.3       1 <0>        -0.5481
     26 C19         4.1747  -12.3225    0.3729 C.3       1 <0>        -0.1793
     27 O4          3.6015  -11.5791    2.6008 O.3       1 <0>        -0.5349
     28 Cl1         6.6331   -8.0103    1.6053 Cl        1 <0>        -0.0497
     29 O5          2.8420   -2.1072    2.2884 O.3       1 <0>        -0.5411
     30 O6          1.4904   -2.1996   -0.1224 O.3       1 <0>        -0.5506
     31 H5          1.3736    1.8005    2.5911 H         1 <0>         0.0519
     32 H6          2.7938    2.1593    1.5799 H         1 <0>         0.0529
     33 H7          1.1672    2.1461    0.8573 H         1 <0>         0.0532
     34 H8          2.4070    0.0732    0.2965 H         1 <0>         0.0565
     35 H9          2.6135   -0.2724    2.0303 H         1 <0>         0.1019
     36 H10         0.1346   -0.1170   -0.7576 H         1 <0>         0.0604
     37 H11        -1.2935   -0.3040    0.2882 H         1 <0>         0.0519
     38 H12        -0.3427    1.1998    0.3408 H         1 <0>         0.0591
     39 H13        -0.2065   -2.6688    3.5698 H         1 <0>         0.0764
     40 H14         1.3625   -2.6326    4.4096 H         1 <0>         0.0710
     41 H15         0.7252   -1.1543    3.6502 H         1 <0>         0.0778
     42 H16         0.6004   -4.6571    2.0635 H         1 <0>         0.1324
     43 H17         3.6186   -4.1928    2.0591 H         1 <0>         0.1477
     44 H18         4.8464   -6.3037    1.8215 H         1 <0>         0.1485
     45 H19         1.7625   -7.8982    0.0130 H         1 <0>         0.0892
     46 H20         0.5894   -8.6042    1.1559 H         1 <0>         0.1229
     47 H21         3.2539  -10.5878   -1.2135 H         1 <0>         0.3873
     48 H22         4.9847  -12.9354    0.7682 H         1 <0>         0.0809
     49 H23         3.2621  -12.9163    0.3203 H         1 <0>         0.0789
     50 H24         4.4381  -11.9719   -0.6250 H         1 <0>         0.0734
     51 H25         4.2777  -12.1314    3.0165 H         1 <0>         0.3916
     52 H26         3.3513   -2.3031    1.4900 H         1 <0>         0.3746
     53 H27         2.3779   -1.8157   -0.1143 H         1 <0>         0.3704
@<TRIPOS>BOND
     1    1    2 1
     2    1   31 1
     3    1   32 1
     4    1   33 1
     5    2    3 1
     6    2   34 1
     7    2   35 1
     8    3    4 1
     9    3    5 1
    10    3    6 1
    11    5   36 1
    12    5   37 1
    13    5   38 1
    14    6    7 1
    15    6    8 1
    16    6   30 1
    17    8    9 1
    18    8   10 1
    19    8   29 1
    20    9   39 1
    21    9   40 1
    22    9   41 1
    23   10   11 2
    24   10   42 1
    25   11   12 1
    26   11   43 1
    27   12   24 1
    28   12   13 2
    29   13   14 1
    30   13   44 1
    31   14   21 1
    32   14   15 2
    33   15   16 1
    34   15   28 1
    35   16   17 2
    36   16   18 1
    37   18   19 1
    38   18   26 1
    39   18   27 1
    40   19   20 1
    41   19   21 1
    42   19   25 1
    43   21   22 1
    44   21   23 1
    45   23   24 1
    46   23   45 1
    47   23   46 1
    48   25   47 1
    49   26   48 1
    50   26   49 1
    51   26   50 1
    52   27   51 1
    53   29   52 1
    54   30   53 1
@<TRIPOS>MOLECULE
ZINC41069914
   32    32     0     0     0
SMALL
USER_CHARGES

@<TRIPOS>ATOM
      1 C1          0.3748    1.8571    0.0820 C.3       1 <0>        -0.1552
      2 C2          0.2639    0.3347    0.1868 C.3       1 <0>        -0.1299
      3 C3          0.8357   -0.3066   -1.0792 C.3       1 <0>         0.1504
      4 H1          0.3339    0.1065   -1.9542 H         1 <0>         0.0858
      5 C4          0.6124   -1.8195   -1.0300 C.3       1 <0>        -0.1748
      6 N1          2.2714   -0.0274   -1.1624 N.pl3     1 <0>        -1.1163
      7 S1          2.9846    0.2096   -2.6380 S.o2      1 <0>         2.6950
      8 O1          4.3599    0.4653   -2.3880 O.2       1 <0>        -0.9527
      9 O2          2.5471   -0.8516   -3.4757 O.2       1 <0>        -0.9437
     10 C5          2.3108    1.6924   -3.3103 C.ar      1 <0>        -0.7939
     11 C6          1.5516    1.6563   -4.4662 C.ar      1 <0>         0.0973
     12 C7          1.0401    2.8494   -4.9607 C.ar      1 <0>        -0.2288
     13 C8          1.3026    4.0276   -4.2890 C.ar      1 <0>         0.2418
     14 N2          2.0306    4.0312   -3.1885 N.ar      1 <0>        -0.5230
     15 C9          2.5302    2.9141   -2.6827 C.ar      1 <0>         0.5084
     16 N3          3.2863    2.9636   -1.5168 N.pl3     1 <0>        -0.5531
     17 N4          3.6072    4.1697   -0.9616 N.3       1 <0>        -0.5917
     18 Br1        -0.0039    2.8606   -6.5373 Br        1 <0>        -0.0239
     19 H2          1.4222    2.1385   -0.0266 H         1 <0>         0.0471
     20 H3         -0.1864    2.2033   -0.7859 H         1 <0>         0.0545
     21 H4         -0.0325    2.3139    0.9839 H         1 <0>         0.0601
     22 H5          0.8251   -0.0116    1.0547 H         1 <0>         0.0730
     23 H6         -0.7835    0.0533    0.2954 H         1 <0>         0.0821
     24 H7          1.1142   -2.2326   -0.1550 H         1 <0>         0.0636
     25 H8         -0.4559   -2.0272   -0.9681 H         1 <0>         0.0707
     26 H9          1.0197   -2.2763   -1.9320 H         1 <0>         0.0735
     27 H10         2.8042    0.0187   -0.3532 H         1 <0>         0.4168
     28 H11         1.3612    0.7217   -4.9729 H         1 <0>         0.1643
     29 H12         0.9071    4.9578   -4.6696 H         1 <0>         0.1760
     30 H13         3.5859    2.1417   -1.0977 H         1 <0>         0.4094
     31 H14         2.7783    4.7139   -0.7749 H         1 <0>         0.3531
     32 H15         4.1559    4.0475   -0.1237 H         1 <0>         0.3640
@<TRIPOS>BOND
     1    1    2 1
     2    1   19 1
     3    1   20 1
     4    1   21 1
     5    2    3 1
     6    2   22 1
     7    2   23 1
     8    3    4 1
     9    3    5 1
    10    3    6 1
    11    5   24 1
    12    5   25 1
    13    5   26 1
    14    6    7 1
    15    6   27 1
    16    7    8 2
    17    7    9 2
    18    7   10 1
    19   10   15 ar
    20   10   11 ar
    21   11   12 ar
    22   11   28 1
    23   12   13 ar
    24   12   18 1
    25   13   14 ar
    26   13   29 1
    27   14   15 ar
    28   15   16 1
    29   16   17 1
    30   16   30 1
    31   17   31 1
    32   17   32 1
@<TRIPOS>MOLECULE
ZINC50677476
   28    29     0     0     0
SMALL
USER_CHARGES

@<TRIPOS>ATOM
      1 C1          1.1680   -0.4385    0.7709 C.ar      1 <0>         0.0968
      2 C2          2.3996    0.1826    0.6029 C.ar      1 <0>        -0.2283
      3 C3          2.5786    1.0544   -0.4531 C.ar      1 <0>         0.2422
      4 N1          1.5969    1.3026   -1.2995 N.ar      1 <0>        -0.5393
      5 C4          0.4097    0.7306   -1.1729 C.ar      1 <0>         0.5052
      6 C5          0.1591   -0.1586   -0.1326 C.ar      1 <0>        -0.7951
      7 S1         -1.4225   -0.9178    0.0316 S.o2      1 <0>         2.6995
      8 O1         -1.3389   -1.7930    1.1479 O.2       1 <0>        -0.9484
      9 O2         -2.3840    0.1254   -0.0483 O.2       1 <0>        -0.9528
     10 N2         -1.6481   -1.8726   -1.3025 N.pl3     1 <0>        -1.1168
     11 C6         -0.7807   -3.0313   -1.5292 C.3       1 <0>         0.1979
     12 C7         -1.4052   -3.9314   -2.5641 C.2       1 <0>        -0.2591
     13 C8         -2.2623   -4.9497   -2.3205 C.2       1 <0>         0.0875
     14 N3         -2.5891   -5.5049   -3.5063 N.pl3     1 <0>        -0.4728
     15 H1         -3.1884   -6.2559   -3.6390 H         1 <0>         0.4433
     16 N4         -1.9103   -4.8045   -4.5119 N.2       1 <0>        -0.2908
     17 C9         -1.2058   -3.8580   -3.9465 C.2       1 <0>         0.0658
     18 N5         -0.5962    1.0216   -2.0877 N.pl3     1 <0>        -0.8303
     19 Br1         3.8155   -0.1618    1.8080 Br        1 <0>        -0.0235
     20 H2          1.0038   -1.1277    1.5860 H         1 <0>         0.1642
     21 H3          3.5340    1.5396   -0.5878 H         1 <0>         0.1759
     22 H4         -2.3545   -1.6647   -1.9339 H         1 <0>         0.4197
     23 H5          0.1932   -2.6925   -1.8824 H         1 <0>         0.0745
     24 H6         -0.6577   -3.5811   -0.5961 H         1 <0>         0.0894
     25 H7         -2.6207   -5.2622   -1.3508 H         1 <0>         0.1823
     26 H8         -0.5766   -3.1451   -4.4586 H         1 <0>         0.1851
     27 H9         -0.4574    1.7076   -2.7593 H         1 <0>         0.4190
     28 H10        -1.4368    0.5387   -2.0543 H         1 <0>         0.4091
@<TRIPOS>BOND
     1    1    6 ar
     2    1    2 ar
     3    1   20 1
     4    2    3 ar
     5    2   19 1
     6    3    4 ar
     7    3   21 1
     8    4    5 ar
     9    5    6 ar
    10    5   18 1
    11    6    7 1
    12    7    8 2
    13    7    9 2
    14    7   10 1
    15   10   11 1
    16   10   22 1
    17   11   12 1
    18   11   23 1
    19   11   24 1
    20   12   17 1
    21   12   13 2
    22   13   14 1
    23   13   25 1
    24   14   15 1
    25   14   16 1
    26   16   17 2
    27   17   26 1
    28   18   27 1
    29   18   28 1
@<TRIPOS>MOLECULE
ZINC63933778
   50    53     0     0     0
SMALL
USER_CHARGES

@<TRIPOS>ATOM
      1 C1         -0.0187    1.5258    0.0104 C.3       1 <0>        -0.1469
      2 C2          0.0021   -0.0041    0.0020 C.3       1 <0>        -0.1452
      3 C3         -1.4333   -0.5336    0.0129 C.3       1 <0>         0.1711
      4 H1         -1.9701   -0.1109    0.8621 H         1 <0>         0.0797
      5 C4         -1.4133   -2.0590    0.1302 C.3       1 <0>        -0.1706
      6 N1         -2.1054   -0.1483   -1.2305 N.am      1 <0>        -0.6235
      7 C5         -3.3133    0.6928   -1.2046 C.3       1 <0>         0.4091
      8 H2         -4.0652    0.1811   -0.6037 H         1 <0>         0.0451
      9 C6         -3.9415    1.0423   -2.5376 C.2       1 <0>        -0.4950
     10 C7         -3.3677    0.5717   -3.6402 C.2       1 <0>         0.4762
     11 N2         -2.2288   -0.2156   -3.5758 N.am      1 <0>        -0.6781
     12 C8         -1.6291   -0.5509   -2.4256 C.2       1 <0>         0.7125
     13 O1         -0.6294   -1.2421   -2.4604 O.2       1 <0>        -0.5920
     14 O2         -3.9066    0.8667   -4.8499 O.3       1 <0>        -0.7139
     15 C9         -5.1800    1.8976   -2.6115 C.3       1 <0>         0.2354
     16 H3         -5.5226    1.9593   -3.6444 H         1 <0>         0.0702
     17 C10        -4.8696    3.3013   -2.0864 C.3       1 <0>         0.0902
     18 H4         -4.4238    3.2467   -1.0932 H         1 <0>         0.1922
     19 C11        -6.2015    4.0412   -2.0350 C.2       1 <0>         0.0590
     20 C12        -6.0360    5.1598   -2.7270 C.ar      1 <0>        -0.1785
     21 C13        -6.9249    6.3090   -2.9627 C.ar      1 <0>        -0.0038
     22 C14        -6.4287    7.2995   -3.7502 C.ar      1 <0>        -0.1665
     23 C15        -5.1525    7.2624   -4.3205 C.ar      1 <0>         0.0252
     24 C16        -4.2665    6.2486   -4.1523 C.ar      1 <0>        -0.1939
     25 C17        -4.6717    5.1510   -3.3386 C.ar      1 <0>         0.3102
     26 N3         -4.0107    4.0635   -2.9913 N.pl3     1 <0>        -0.5366
     27 C18        -7.4166    3.4394   -1.3719 C.3       1 <0>        -0.0791
     28 C19        -7.5263    1.9983   -1.9028 C.3       1 <0>         0.0555
     29 N4         -6.2377    1.3122   -1.7724 N.3       1 <0>        -0.6949
     30 O3         -2.9837    1.9147   -0.5411 O.3       1 <0>        -0.5885
     31 H5          1.0039    1.9031    0.0027 H         1 <0>         0.0485
     32 H6         -0.5459    1.8868   -0.8726 H         1 <0>         0.0601
     33 H7         -0.5289    1.8773    0.9072 H         1 <0>         0.0469
     34 H8          0.5123   -0.3556   -0.8948 H         1 <0>         0.0881
     35 H9          0.5293   -0.3651    0.8851 H         1 <0>         0.0677
     36 H10        -0.8764   -2.4817   -0.7190 H         1 <0>         0.0809
     37 H11        -0.9132   -2.3457    1.0553 H         1 <0>         0.0625
     38 H12        -2.4359   -2.4363    0.1380 H         1 <0>         0.0529
     39 H13        -1.8440   -0.5371   -4.4061 H         1 <0>         0.4086
     40 H14        -7.9150    6.3621   -2.5346 H         1 <0>         0.1608
     41 H15        -7.0523    8.1593   -3.9458 H         1 <0>         0.1444
     42 H16        -4.8518    8.0968   -4.9367 H         1 <0>         0.1472
     43 H17        -3.2920    6.2723   -4.6172 H         1 <0>         0.1603
     44 H18        -7.2872    3.4310   -0.2896 H         1 <0>         0.1203
     45 H19        -8.3085    4.0060   -1.6393 H         1 <0>         0.1032
     46 H20        -8.2821    1.4592   -1.3315 H         1 <0>         0.0975
     47 H21        -7.8181    2.0213   -2.9528 H         1 <0>         0.0401
     48 H22        -6.3343    0.3236   -1.9496 H         1 <0>         0.3697
     49 H23        -2.6804    1.7983    0.3697 H         1 <0>         0.3601
     50 H24        -3.1215    3.8061   -3.2812 H         1 <0>         0.4558
@<TRIPOS>BOND
     1    1    2 1
     2    1   31 1
     3    1   32 1
     4    1   33 1
     5    2    3 1
     6    2   34 1
     7    2   35 1
     8    3    4 1
     9    3    5 1
    10    3    6 1
    11    5   36 1
    12    5   37 1
    13    5   38 1
    14    6   12 am
    15    6    7 1
    16    7    8 1
    17    7    9 1
    18    7   30 1
    19    9   10 2
    20    9   15 1
    21   10   11 1
    22   10   14 1
    23   11   12 am
    24   11   39 1
    25   12   13 2
    26   15   16 1
    27   15   29 1
    28   15   17 1
    29   17   18 1
    30   17   26 1
    31   17   19 1
    32   19   20 2
    33   19   27 1
    34   20   25 ar
    35   20   21 ar
    36   21   22 ar
    37   21   40 1
    38   22   23 ar
    39   22   41 1
    40   23   24 ar
    41   23   42 1
    42   24   25 ar
    43   24   43 1
    44   25   26 2
    45   26   50 1
    46   27   28 1
    47   27   44 1
    48   27   45 1
    49   28   29 1
    50   28   46 1
    51   28   47 1
    52   29   48 1
    53   30   49 1
@<TRIPOS>MOLECULE
ZINC10149952
   56    57     0     0     0
SMALL
USER_CHARGES
4-ethyl-2-[(4-isopentyloxybenzoyl)thiocarbamoylamino]-5-methyl-thiophene-3-carboxamide
@<TRIPOS>ATOM
      1 C1          1.4790   -2.6359   -1.4682 C.3       1 <0>        -0.1472
      2 C2          1.4443   -2.1355   -0.0227 C.3       1 <0>        -0.0685
      3 C3          1.3004   -0.6354   -0.0138 C.2       1 <0>        -0.0876
      4 C4          2.3759    0.1721   -0.0197 C.2       1 <0>        -0.2349
      5 S1          1.6635    1.8041   -0.0041 S.3       1 <0>         0.3160
      6 C5         -0.0168    1.3860    0.0097 C.2       1 <0>         0.0155
      7 C6          0.0021   -0.0041    0.0020 C.2       1 <0>        -0.1877
      8 C7         -1.2352   -0.7900    0.0101 C.2       1 <0>         0.5809
      9 O1         -1.7591   -1.1110   -1.0406 O.2       1 <0>        -0.5322
     10 N1         -1.7927   -1.1572    1.1809 N.am      1 <0>        -0.8496
     11 N2         -1.1142    2.2320    0.0197 N.pl3     1 <0>        -0.5546
     12 C8         -0.9353    3.5678    0.0261 C.2       1 <0>         0.4775
     13 S2          0.6479    4.2194    0.0218 S.2       1 <0>        -0.3745
     14 N3         -2.0027    4.3906    0.0359 N.am      1 <0>        -0.6344
     15 C9         -1.8238    5.7264    0.0422 C.2       1 <0>         0.5442
     16 O2         -0.6997    6.1891    0.0392 O.2       1 <0>        -0.4083
     17 C10        -2.9921    6.6270    0.0529 C.ar      1 <0>        -0.1822
     18 C11        -4.2855    6.0971    0.0507 C.ar      1 <0>        -0.0436
     19 C12        -5.3732    6.9411    0.0670 C.ar      1 <0>        -0.2164
     20 C13        -5.1865    8.3186    0.0731 C.ar      1 <0>         0.1706
     21 C14        -3.9019    8.8498    0.0696 C.ar      1 <0>        -0.1574
     22 C15        -2.8088    8.0127    0.0595 C.ar      1 <0>        -0.0070
     23 O3         -6.2613    9.1471    0.0830 O.3       1 <0>        -0.3067
     24 C16        -7.5524    8.5347    0.0861 C.3       1 <0>         0.0536
     25 C17        -8.6313    9.6195    0.0975 C.3       1 <0>        -0.1160
     26 C18       -10.0137    8.9639    0.1008 C.3       1 <0>        -0.0935
     27 C19       -10.2068    8.1874    1.4049 C.3       1 <0>        -0.1545
     28 C20       -11.0909   10.0444   -0.0136 C.3       1 <0>        -0.1485
     29 C21         3.8331   -0.2118   -0.0350 C.3       1 <0>        -0.0675
     30 H1          1.5830   -3.7209   -1.4746 H         1 <0>         0.0547
     31 H2          0.5534   -2.3567   -1.9716 H         1 <0>         0.0585
     32 H3          2.3251   -2.1866   -1.9880 H         1 <0>         0.0565
     33 H4          2.3698   -2.4147    0.4808 H         1 <0>         0.0751
     34 H5          0.5981   -2.5848    0.4971 H         1 <0>         0.0602
     35 H6         -1.3752   -0.9013    2.0182 H         1 <0>         0.4042
     36 H7         -2.6114   -1.6772    1.1863 H         1 <0>         0.4026
     37 H8         -2.0111    1.8627    0.0222 H         1 <0>         0.4124
     38 H9         -2.8996    4.0214    0.0383 H         1 <0>         0.4134
     39 H10        -4.4314    5.0270    0.0408 H         1 <0>         0.1246
     40 H11        -6.3729    6.5324    0.0705 H         1 <0>         0.1377
     41 H12        -3.7612    9.9205    0.0743 H         1 <0>         0.1448
     42 H13        -1.8111    8.4262    0.0571 H         1 <0>         0.1500
     43 H14        -7.6650    7.9196   -0.8066 H         1 <0>         0.0660
     44 H15        -7.6561    7.9099    0.9733 H         1 <0>         0.0689
     45 H16        -8.5188   10.2346    0.9902 H         1 <0>         0.0768
     46 H17        -8.5277   10.2443   -0.7897 H         1 <0>         0.0766
     47 H18       -10.0937    8.2802   -0.7443 H         1 <0>         0.0731
     48 H19        -9.4394    7.4176    1.4865 H         1 <0>         0.0538
     49 H20       -10.1268    8.8711    2.2501 H         1 <0>         0.0585
     50 H21       -11.1916    7.7203    1.4073 H         1 <0>         0.0589
     51 H22       -10.9534   10.5975   -0.9427 H         1 <0>         0.0573
     52 H23       -12.0758    9.5773   -0.0112 H         1 <0>         0.0590
     53 H24       -11.0110   10.7280    0.8315 H         1 <0>         0.0575
     54 H25         4.1750   -0.2994   -1.0662 H         1 <0>         0.0741
     55 H26         4.4159    0.5537    0.4773 H         1 <0>         0.0695
     56 H27         3.9624   -1.1675    0.4731 H         1 <0>         0.0700
@<TRIPOS>BOND
     1    1    2 1
     2    1   30 1
     3    1   31 1
     4    1   32 1
     5    2    3 1
     6    2   33 1
     7    2   34 1
     8    3    7 1
     9    3    4 2
    10    4    5 1
    11    4   29 1
    12    5    6 1
    13    6    7 2
    14    6   11 1
    15    7    8 1
    16    8    9 2
    17    8   10 am
    18   10   35 1
    19   10   36 1
    20   11   12 1
    21   11   37 1
    22   12   13 2
    23   12   14 1
    24   14   15 am
    25   14   38 1
    26   15   16 2
    27   15   17 1
    28   17   22 ar
    29   17   18 ar
    30   18   19 ar
    31   18   39 1
    32   19   20 ar
    33   19   40 1
    34   20   21 ar
    35   20   23 1
    36   21   22 ar
    37   21   41 1
    38   22   42 1
    39   23   24 1
    40   24   25 1
    41   24   43 1
    42   24   44 1
    43   25   26 1
    44   25   45 1
    45   25   46 1
    46   26   27 1
    47   26   28 1
    48   26   47 1
    49   27   48 1
    50   27   49 1
    51   27   50 1
    52   28   51 1
    53   28   52 1
    54   28   53 1
    55   29   54 1
    56   29   55 1
    57   29   56 1
@<TRIPOS>MOLECULE
ZINC14843027
   52    54     0     0     0
SMALL
USER_CHARGES
N-[4-[[(4-isopropylphenyl)carbamothioylamino]carbamoyl]phenyl]furan-2-carboxamide
@<TRIPOS>ATOM
      1 C1         10.8770    4.9561   -1.8652 C.3       1 <0>        -0.1447
      2 C2         10.0674    6.2487   -1.7449 C.3       1 <0>        -0.0594
      3 C3         10.2216    7.0683   -3.0277 C.3       1 <0>        -0.1457
      4 C4          8.6133    5.9131   -1.5350 C.ar      1 <0>        -0.0655
      5 C5          7.9646    6.3412   -0.3913 C.ar      1 <0>        -0.1077
      6 C6          6.6319    6.0357   -0.1961 C.ar      1 <0>        -0.0684
      7 C7          5.9433    5.2976   -1.1500 C.ar      1 <0>         0.1149
      8 C8          6.5992    4.8646   -2.2950 C.ar      1 <0>        -0.1180
      9 C9          7.9306    5.1780   -2.4867 C.ar      1 <0>        -0.1087
     10 N1          4.5936    4.9860   -0.9551 N.pl3     1 <0>        -0.6302
     11 C10         3.7522    5.9150   -0.4597 C.2       1 <0>         0.5526
     12 S1          4.3005    7.5163   -0.2026 S.2       1 <0>        -0.5602
     13 N2          2.4792    5.5834   -0.1665 N.pl3     1 <0>        -0.4610
     14 N3          2.0305    4.2730   -0.3769 N.am      1 <0>        -0.5497
     15 C11         0.7574    3.9414   -0.0837 C.2       1 <0>         0.5725
     16 O1         -0.0016    4.7795    0.3632 O.2       1 <0>        -0.5123
     17 C12         0.2848    2.5610   -0.3053 C.ar      1 <0>        -0.1510
     18 C13        -1.0351    2.2155   -0.0019 C.ar      1 <0>        -0.0245
     19 C14        -1.4729    0.9273   -0.2101 C.ar      1 <0>        -0.1267
     20 C15        -0.6029   -0.0309   -0.7217 C.ar      1 <0>         0.1854
     21 C16         0.7117    0.3100   -1.0253 C.ar      1 <0>        -0.1476
     22 C17         1.1557    1.5967   -0.8199 C.ar      1 <0>        -0.0625
     23 N4         -1.0492   -1.3340   -0.9309 N.am      1 <0>        -0.6666
     24 C18        -2.3204   -1.5568   -1.3192 C.2       1 <0>         0.6095
     25 O2         -3.0492   -0.6187   -1.5837 O.2       1 <0>        -0.4910
     26 C19        -2.8253   -2.9292   -1.4228 C.2       1 <0>        -0.0956
     27 C20        -4.0856   -3.2943   -1.8021 C.2       1 <0>        -0.1021
     28 C21        -4.1292   -4.6965   -1.7604 C.2       1 <0>        -0.2254
     29 C22        -2.9093   -5.1208   -1.3627 C.2       1 <0>         0.0075
     30 O3         -2.1247   -4.0533   -1.1659 O.3       1 <0>        -0.1660
     31 H1         10.5119    4.3762   -2.7129 H         1 <0>         0.0564
     32 H2         11.9287    5.1988   -2.0170 H         1 <0>         0.0590
     33 H3         10.7671    4.3722   -0.9513 H         1 <0>         0.0561
     34 H4         10.4325    6.8286   -0.8972 H         1 <0>         0.0797
     35 H5          9.8565    6.4884   -3.8754 H         1 <0>         0.0564
     36 H6          9.6448    7.9892   -2.9420 H         1 <0>         0.0580
     37 H7         11.2733    7.3111   -3.1795 H         1 <0>         0.0588
     38 H8          8.5005    6.9155    0.3499 H         1 <0>         0.1285
     39 H9          6.1257    6.3707    0.6972 H         1 <0>         0.1431
     40 H10         6.0677    4.2866   -3.0366 H         1 <0>         0.1234
     41 H11         8.4401    4.8451   -3.3789 H         1 <0>         0.1271
     42 H12         4.2632    4.1013   -1.1766 H         1 <0>         0.3985
     43 H13         1.8737    6.2521    0.1900 H         1 <0>         0.4620
     44 H14         2.6360    3.6044   -0.7334 H         1 <0>         0.4188
     45 H15        -1.7119    2.9596    0.3914 H         1 <0>         0.1470
     46 H16        -2.4927    0.6597    0.0242 H         1 <0>         0.1468
     47 H17         1.3844   -0.4358   -1.4223 H         1 <0>         0.1395
     48 H18         2.1761    1.8606   -1.0557 H         1 <0>         0.1271
     49 H19        -0.4449   -2.0809   -0.7971 H         1 <0>         0.4206
     50 H20        -4.8924   -2.6322   -2.0798 H         1 <0>         0.1642
     51 H21        -4.9782   -5.3193   -2.0005 H         1 <0>         0.1618
     52 H22        -2.6142   -6.1512   -1.2300 H         1 <0>         0.2153
@<TRIPOS>BOND
     1    1    2 1
     2    1   31 1
     3    1   32 1
     4    1   33 1
     5    2    3 1
     6    2    4 1
     7    2   34 1
     8    3   35 1
     9    3   36 1
    10    3   37 1
    11    4    9 ar
    12    4    5 ar
    13    5    6 ar
    14    5   38 1
    15    6    7 ar
    16    6   39 1
    17    7    8 ar
    18    7   10 1
    19    8    9 ar
    20    8   40 1
    21    9   41 1
    22   10   11 1
    23   10   42 1
    24   11   12 2
    25   11   13 1
    26   13   14 1
    27   13   43 1
    28   14   15 am
    29   14   44 1
    30   15   16 2
    31   15   17 1
    32   17   22 ar
    33   17   18 ar
    34   18   19 ar
    35   18   45 1
    36   19   20 ar
    37   19   46 1
    38   20   21 ar
    39   20   23 1
    40   21   22 ar
    41   21   47 1
    42   22   48 1
    43   23   24 am
    44   23   49 1
    45   24   25 2
    46   24   26 1
    47   26   30 1
    48   26   27 2
    49   27   28 1
    50   27   50 1
    51   28   29 2
    52   28   51 1
    53   29   30 1
    54   29   52 1
@<TRIPOS>MOLECULE
ZINC36581977
   69    69     0     0     0
SMALL
USER_CHARGES

@<TRIPOS>ATOM
      1 C1          1.0946    0.5834   -4.3743 C.3       1 <0>        -0.1544
      2 C2          0.9925   -0.8624   -3.8845 C.3       1 <0>        -0.1262
      3 C3          1.4007   -0.9319   -2.4116 C.3       1 <0>        -0.1207
      4 C4          1.2987   -2.3777   -1.9217 C.3       1 <0>        -0.1163
      5 C5          1.7069   -2.4472   -0.4488 C.3       1 <0>        -0.1018
      6 C6          1.6064   -3.8713    0.0337 C.2       1 <0>        -0.0542
      7 C7          2.6604   -4.4605    0.5911 C.2       1 <0>        -0.2407
      8 C8          2.5623   -5.8506    1.0621 C.2       1 <0>         0.5619
      9 O1          1.4983   -6.4371    1.0086 O.2       1 <0>        -0.5432
     10 N1          3.6517   -6.4743    1.5529 N.am      1 <0>        -0.5696
     11 C9          3.5943   -7.9016    1.8780 C.3       1 <0>         0.1810
     12 H1          4.4123   -8.4211    1.3790 H         1 <0>         0.1079
     13 C10         2.2791   -8.4706    1.4115 C.ar      1 <0>        -0.1654
     14 C11         1.1067   -8.1409    2.0748 C.ar      1 <0>         0.2679
     15 C12        -0.1035   -8.6645    1.6455 C.ar      1 <0>        -0.1996
     16 C13        -0.1414   -9.5174    0.5527 C.ar      1 <0>         0.1568
     17 C14         1.0308   -9.8463   -0.1111 C.ar      1 <0>        -0.2050
     18 C15         2.2405   -9.3193    0.3155 C.ar      1 <0>         0.1498
     19 O2          3.3887   -9.6380   -0.3379 O.3       1 <0>        -0.4934
     20 O3         -1.3273  -10.0312    0.1326 O.3       1 <0>        -0.4977
     21 O4          1.1439   -7.3051    3.1457 O.3       1 <0>        -0.4966
     22 C16         3.7194   -8.0826    3.3688 C.2       1 <0>         0.5236
     23 O5          3.6646   -7.1191    4.1034 O.2       1 <0>        -0.5083
     24 N2          3.8922   -9.3152    3.8858 N.am      1 <0>        -0.7208
     25 C17         4.0138   -9.4912    5.3351 C.3       1 <0>         0.1725
     26 C18         2.7454   -8.9778    6.0195 C.3       1 <0>        -0.1603
     27 C19         4.2006  -10.9758    5.6547 C.3       1 <0>        -0.1569
     28 C20         5.2226   -8.7038    5.8448 C.3       1 <0>        -0.1632
     29 C21         4.8931   -5.7249    1.7612 C.3       1 <0>         0.1723
     30 C22         4.6056   -4.4892    2.6164 C.3       1 <0>        -0.1807
     31 C23         5.9119   -6.6144    2.4766 C.3       1 <0>        -0.1773
     32 C24         5.4585   -5.2884    0.4082 C.3       1 <0>        -0.1743
     33 H2          2.1213    0.9325   -4.2650 H         1 <0>         0.0536
     34 H3          0.8038    0.6329   -5.4237 H         1 <0>         0.0539
     35 H4          0.4312    1.2150   -3.7833 H         1 <0>         0.0538
     36 H5         -0.0343   -1.2115   -3.9938 H         1 <0>         0.0613
     37 H6          1.6559   -1.4939   -4.4755 H         1 <0>         0.0609
     38 H7          2.4275   -0.5828   -2.3022 H         1 <0>         0.0625
     39 H8          0.7374   -0.3003   -1.8205 H         1 <0>         0.0631
     40 H9          0.2719   -2.7268   -2.0310 H         1 <0>         0.0661
     41 H10         1.9620   -3.0092   -2.5127 H         1 <0>         0.0646
     42 H11         2.7337   -2.0981   -0.3395 H         1 <0>         0.0727
     43 H12         1.0436   -1.8156    0.1422 H         1 <0>         0.0845
     44 H13         0.6785   -4.4134   -0.0731 H         1 <0>         0.1254
     45 H14         3.5884   -3.9183    0.6979 H         1 <0>         0.1481
     46 H15        -1.0165   -8.4083    2.1625 H         1 <0>         0.1312
     47 H16         1.0013  -10.5109   -0.9619 H         1 <0>         0.1329
     48 H17         3.8322  -10.4250    0.0072 H         1 <0>         0.3890
     49 H18        -1.7805   -9.4870   -0.5259 H         1 <0>         0.3943
     50 H19         1.1888   -6.3679    2.9118 H         1 <0>         0.3923
     51 H20         3.9360  -10.0858    3.2983 H         1 <0>         0.3951
     52 H21         1.8842   -9.5388    5.6564 H         1 <0>         0.0531
     53 H22         2.8359   -9.1088    7.0978 H         1 <0>         0.0586
     54 H23         2.6123   -7.9202    5.7918 H         1 <0>         0.0818
     55 H24         5.1043  -11.3415    5.1672 H         1 <0>         0.0612
     56 H25         4.2911  -11.1067    6.7330 H         1 <0>         0.0740
     57 H26         3.3394  -11.5367    5.2916 H         1 <0>         0.0619
     58 H27         5.0896   -7.6462    5.6171 H         1 <0>         0.0780
     59 H28         5.3131   -8.8347    6.9231 H         1 <0>         0.0629
     60 H29         6.1263   -9.0695    5.3573 H         1 <0>         0.0526
     61 H30         4.3322   -4.8007    3.6246 H         1 <0>         0.0784
     62 H31         5.4957   -3.8615    2.6588 H         1 <0>         0.0675
     63 H32         3.7839   -3.9251    2.1751 H         1 <0>         0.0754
     64 H33         6.1279   -7.4874    1.8606 H         1 <0>         0.0564
     65 H34         6.8304   -6.0522    2.6449 H         1 <0>         0.0729
     66 H35         5.5031   -6.9375    3.4340 H         1 <0>         0.0879
     67 H36         4.7675   -4.5919   -0.0667 H         1 <0>         0.0708
     68 H37         6.4214   -4.7999    0.5573 H         1 <0>         0.0715
     69 H38         5.5894   -6.1623   -0.2299 H         1 <0>         0.0626
@<TRIPOS>BOND
     1    1    2 1
     2    1   33 1
     3    1   34 1
     4    1   35 1
     5    2    3 1
     6    2   36 1
     7    2   37 1
     8    3    4 1
     9    3   38 1
    10    3   39 1
    11    4    5 1
    12    4   40 1
    13    4   41 1
    14    5    6 1
    15    5   42 1
    16    5   43 1
    17    6    7 2
    18    6   44 1
    19    7    8 1
    20    7   45 1
    21    8    9 2
    22    8   10 am
    23   10   11 1
    24   10   29 1
    25   11   12 1
    26   11   13 1
    27   11   22 1
    28   13   18 ar
    29   13   14 ar
    30   14   15 ar
    31   14   21 1
    32   15   16 ar
    33   15   46 1
    34   16   17 ar
    35   16   20 1
    36   17   18 ar
    37   17   47 1
    38   18   19 1
    39   19   48 1
    40   20   49 1
    41   21   50 1
    42   22   23 2
    43   22   24 am
    44   24   25 1
    45   24   51 1
    46   25   26 1
    47   25   27 1
    48   25   28 1
    49   26   52 1
    50   26   53 1
    51   26   54 1
    52   27   55 1
    53   27   56 1
    54   27   57 1
    55   28   58 1
    56   28   59 1
    57   28   60 1
    58   29   30 1
    59   29   31 1
    60   29   32 1
    61   30   61 1
    62   30   62 1
    63   30   63 1
    64   31   64 1
    65   31   65 1
    66   31   66 1
    67   32   67 1
    68   32   68 1
    69   32   69 1
@<TRIPOS>MOLECULE
ZINC12826880
   53    55     0     0     0
SMALL
USER_CHARGES

@<TRIPOS>ATOM
      1 C1         -0.0187    1.5258    0.0104 C.3       1 <0>        -0.1543
      2 C2          0.0021   -0.0041    0.0020 C.3       1 <0>        -0.1184
      3 C3          0.7182   -0.4975   -1.2568 C.3       1 <0>        -0.0834
      4 C4          0.7386   -2.0043   -1.2651 C.ar      1 <0>        -0.0748
      5 C5          1.7895   -2.6824   -0.6740 C.ar      1 <0>        -0.1199
      6 C6          1.8135   -4.0622   -0.6785 C.ar      1 <0>        -0.0833
      7 C7          0.7760   -4.7726   -1.2799 C.ar      1 <0>        -0.0249
      8 C8         -0.2806   -4.0841   -1.8736 C.ar      1 <0>        -0.1026
      9 C9         -0.2964   -2.7042   -1.8587 C.ar      1 <0>        -0.1183
     10 C10         0.7963   -6.2556   -1.2885 C.2       1 <0>         0.1078
     11 C11        -0.3697   -6.9623   -1.1886 C.2       1 <0>        -0.2010
     12 S1          0.2519   -8.6377   -1.2511 S.3       1 <0>         0.1184
     13 C12         1.9849   -8.2271   -1.4025 C.2       1 <0>         0.3058
     14 N1          1.9440   -6.9078   -1.3984 N.2       1 <0>        -0.5234
     15 N2          3.0832   -9.0723   -1.5034 N.am      1 <0>        -0.6092
     16 C13         2.9081  -10.4087   -1.4945 C.2       1 <0>         0.5125
     17 O1          1.7920  -10.8734   -1.3984 O.2       1 <0>        -0.4804
     18 C14         4.0992  -11.3254   -1.6039 C.3       1 <0>        -0.1408
     19 C15         3.6277  -12.7805   -1.5694 C.3       1 <0>         0.2698
     20 H1          2.8834  -12.9399   -2.3497 H         1 <0>         0.1225
     21 C16         4.8028  -13.6950   -1.8018 C.2       1 <0>        -0.1634
     22 C17         5.1850  -14.3208   -2.9417 C.2       1 <0>        -0.1363
     23 C18         6.3116  -15.1215   -2.9214 C.2       1 <0>        -0.1567
     24 C19         7.0008  -15.2572   -1.7621 C.2       1 <0>        -0.1694
     25 S2          6.0571  -14.2288   -0.6490 S.3       1 <0>         0.0429
     26 N3          3.0342  -13.0707   -0.2619 N.am      1 <0>        -0.7339
     27 C20         2.1251  -14.0580   -0.1386 C.2       1 <0>         0.7160
     28 O2          1.7976  -14.7079   -1.1126 O.2       1 <0>        -0.5849
     29 N4          1.5791  -14.3250    1.0644 N.am      1 <0>        -0.8656
     30 C21        -1.7871   -6.4663   -1.0610 C.3       1 <0>        -0.0646
     31 H2          1.0039    1.9031    0.0027 H         1 <0>         0.0545
     32 H3         -0.5459    1.8868   -0.8726 H         1 <0>         0.0547
     33 H4         -0.5289    1.8773    0.9072 H         1 <0>         0.0554
     34 H5          0.5293   -0.3651    0.8851 H         1 <0>         0.0627
     35 H6         -1.0205   -0.3814    0.0098 H         1 <0>         0.0631
     36 H7          0.1910   -0.1364   -2.1398 H         1 <0>         0.0727
     37 H8          1.7408   -0.1202   -1.2645 H         1 <0>         0.0724
     38 H9          2.5929   -2.1309   -0.2083 H         1 <0>         0.1230
     39 H10         2.6348   -4.5906   -0.2174 H         1 <0>         0.1246
     40 H11        -1.0871   -4.6294   -2.3410 H         1 <0>         0.1275
     41 H12        -1.1164   -2.1696   -2.3151 H         1 <0>         0.1247
     42 H13         3.9758   -8.7006   -1.5803 H         1 <0>         0.4274
     43 H14         4.6197  -11.1343   -2.5423 H         1 <0>         0.1281
     44 H15         4.7760  -11.1429   -0.7693 H         1 <0>         0.1150
     45 H16         4.6177  -14.1960   -3.8522 H         1 <0>         0.1353
     46 H17         6.6376  -15.6317   -3.8158 H         1 <0>         0.1356
     47 H18         7.8919  -15.8344   -1.5642 H         1 <0>         0.1861
     48 H19         3.2955  -12.5522    0.5152 H         1 <0>         0.3957
     49 H20         1.8404  -13.8065    1.8414 H         1 <0>         0.3961
     50 H21         0.9248  -15.0356    1.1531 H         1 <0>         0.4163
     51 H22        -2.2193   -6.3421   -2.0539 H         1 <0>         0.0812
     52 H23        -2.3756   -7.1895   -0.4964 H         1 <0>         0.0752
     53 H24        -1.7914   -5.5087   -0.5404 H         1 <0>         0.0866
@<TRIPOS>BOND
     1    1    2 1
     2    1   31 1
     3    1   32 1
     4    1   33 1
     5    2    3 1
     6    2   34 1
     7    2   35 1
     8    3    4 1
     9    3   36 1
    10    3   37 1
    11    4    9 ar
    12    4    5 ar
    13    5    6 ar
    14    5   38 1
    15    6    7 ar
    16    6   39 1
    17    7    8 ar
    18    7   10 1
    19    8    9 ar
    20    8   40 1
    21    9   41 1
    22   10   14 1
    23   10   11 2
    24   11   12 1
    25   11   30 1
    26   12   13 1
    27   13   14 2
    28   13   15 1
    29   15   16 am
    30   15   42 1
    31   16   17 2
    32   16   18 1
    33   18   19 1
    34   18   43 1
    35   18   44 1
    36   19   20 1
    37   19   21 1
    38   19   26 1
    39   21   25 1
    40   21   22 2
    41   22   23 1
    42   22   45 1
    43   23   24 2
    44   23   46 1
    45   24   25 1
    46   24   47 1
    47   26   27 am
    48   26   48 1
    49   27   28 2
    50   27   29 am
    51   29   49 1
    52   29   50 1
    53   30   51 1
    54   30   52 1
    55   30   53 1
@<TRIPOS>MOLECULE
ZINC66072813
   63    64     0     0     0
SMALL
USER_CHARGES

@<TRIPOS>ATOM
      1 C1          1.5767   -3.6167   -2.8492 C.3       1 <0>        -0.1544
      2 C2          0.8983   -2.6294   -3.8011 C.3       1 <0>        -0.1326
      3 C3          1.0049   -1.2144   -3.2291 C.3       1 <0>         0.1399
      4 H1          0.5928   -1.1983   -2.2202 H         1 <0>         0.0905
      5 C4          0.2204   -0.2454   -4.1160 C.3       1 <0>        -0.1654
      6 N1          2.4121   -0.8088   -3.1884 N.am      1 <0>        -0.7213
      7 C5          2.8189    0.1250   -2.3059 C.2       1 <0>         0.5616
      8 O1          2.0181    0.6309   -1.5436 O.2       1 <0>        -0.5365
      9 C6          4.2366    0.5336   -2.2648 C.ar      1 <0>        -0.1518
     10 C7          5.1572   -0.0426   -3.1442 C.ar      1 <0>        -0.0642
     11 C8          6.4788    0.3411   -3.1036 C.ar      1 <0>        -0.1290
     12 C9          6.8982    1.3011   -2.1880 C.ar      1 <0>         0.1724
     13 C10         5.9842    1.8768   -1.3111 C.ar      1 <0>        -0.1514
     14 C11         4.6602    1.5018   -1.3504 C.ar      1 <0>        -0.0364
     15 N2          8.2376    1.6868   -2.1489 N.am      1 <0>        -0.6699
     16 C12         8.9630    1.7189   -3.2844 C.2       1 <0>         0.5119
     17 O2          8.4290    1.5023   -4.3515 O.2       1 <0>        -0.5088
     18 C13        10.4378    2.0240   -3.2280 C.3       1 <0>         0.1091
     19 N3         10.9937    1.9994   -4.5832 N.pl3     1 <0>        -0.7392
     20 C14        12.3541    2.2550   -4.7859 C.ar      1 <0>         0.2049
     21 C15        13.1788    2.5265   -3.7018 C.ar      1 <0>        -0.1818
     22 C16        14.5213    2.7788   -3.9021 C.ar      1 <0>        -0.0685
     23 C17        15.0469    2.7616   -5.1872 C.ar      1 <0>         0.0845
     24 C18        14.2225    2.4907   -6.2711 C.ar      1 <0>        -0.0929
     25 C19        12.8812    2.2318   -6.0706 C.ar      1 <0>        -0.1717
     26 N4         16.4097    3.0181   -5.3903 N.am      1 <0>        -0.6735
     27 C20        17.3171    2.5927   -4.4892 C.2       1 <0>         0.5115
     28 O3         16.9494    2.0623   -3.4622 O.2       1 <0>        -0.5197
     29 C21        18.7887    2.7761   -4.7575 C.3       1 <0>        -0.1370
     30 C22        19.5949    2.2111   -3.5863 C.3       1 <0>        -0.0807
     31 C23        19.3839    0.6979   -3.5048 C.3       1 <0>        -0.1551
     32 C24        21.0806    2.5081   -3.7996 C.3       1 <0>        -0.1495
     33 H2          2.6272   -3.3488   -2.7359 H         1 <0>         0.0542
     34 H3          1.0854   -3.5799   -1.8769 H         1 <0>         0.0565
     35 H4          1.5008   -4.6248   -3.2567 H         1 <0>         0.0577
     36 H5          1.3896   -2.6663   -4.7734 H         1 <0>         0.0682
     37 H6         -0.1521   -2.8974   -3.9144 H         1 <0>         0.0806
     38 H7          0.6325   -0.2615   -5.1249 H         1 <0>         0.0571
     39 H8         -0.8266   -0.5471   -4.1463 H         1 <0>         0.0672
     40 H9          0.2963    0.7627   -3.7085 H         1 <0>         0.0616
     41 H10         3.0509   -1.2124   -3.7965 H         1 <0>         0.3985
     42 H11         4.8324   -0.7884   -3.8546 H         1 <0>         0.1292
     43 H12         7.1908   -0.1039   -3.7829 H         1 <0>         0.1405
     44 H13         6.3131    2.6218   -0.6017 H         1 <0>         0.1357
     45 H14         3.9504    1.9523   -0.6724 H         1 <0>         0.1424
     46 H15         8.6473    1.9319   -1.3046 H         1 <0>         0.4173
     47 H16        10.5881    3.0114   -2.7914 H         1 <0>         0.0955
     48 H17        10.9405    1.2755   -2.6154 H         1 <0>         0.0969
     49 H18        10.4186    1.8059   -5.3399 H         1 <0>         0.4113
     50 H19        12.7699    2.5406   -2.7023 H         1 <0>         0.1229
     51 H20        15.1627    2.9899   -3.0592 H         1 <0>         0.1381
     52 H21        14.6313    2.4780   -7.2706 H         1 <0>         0.1255
     53 H22        12.2410    2.0159   -6.9132 H         1 <0>         0.1256
     54 H23        16.6998    3.5019   -6.1794 H         1 <0>         0.4085
     55 H24        19.0595    2.2496   -5.6726 H         1 <0>         0.0960
     56 H25        19.0078    3.8379   -4.8707 H         1 <0>         0.0955
     57 H26        19.2612    2.6750   -2.6581 H         1 <0>         0.0783
     58 H27        19.9582    0.2954   -2.6704 H         1 <0>         0.0535
     59 H28        18.3254    0.4864   -3.3529 H         1 <0>         0.0732
     60 H29        19.7175    0.2340   -4.4330 H         1 <0>         0.0479
     61 H30        21.2310    3.5861   -3.8576 H         1 <0>         0.0550
     62 H31        21.6550    2.1055   -2.9652 H         1 <0>         0.0592
     63 H32        21.4143    2.0441   -4.7277 H         1 <0>         0.0554
@<TRIPOS>BOND
     1    1    2 1
     2    1   33 1
     3    1   34 1
     4    1   35 1
     5    2    3 1
     6    2   36 1
     7    2   37 1
     8    3    4 1
     9    3    5 1
    10    3    6 1
    11    5   38 1
    12    5   39 1
    13    5   40 1
    14    6    7 am
    15    6   41 1
    16    7    8 2
    17    7    9 1
    18    9   14 ar
    19    9   10 ar
    20   10   11 ar
    21   10   42 1
    22   11   12 ar
    23   11   43 1
    24   12   13 ar
    25   12   15 1
    26   13   14 ar
    27   13   44 1
    28   14   45 1
    29   15   16 am
    30   15   46 1
    31   16   17 2
    32   16   18 1
    33   18   19 1
    34   18   47 1
    35   18   48 1
    36   19   20 1
    37   19   49 1
    38   20   25 ar
    39   20   21 ar
    40   21   22 ar
    41   21   50 1
    42   22   23 ar
    43   22   51 1
    44   23   24 ar
    45   23   26 1
    46   24   25 ar
    47   24   52 1
    48   25   53 1
    49   26   27 am
    50   26   54 1
    51   27   28 2
    52   27   29 1
    53   29   30 1
    54   29   55 1
    55   29   56 1
    56   30   31 1
    57   30   32 1
    58   30   57 1
    59   31   58 1
    60   31   59 1
    61   31   60 1
    62   32   61 1
    63   32   62 1
    64   32   63 1
@<TRIPOS>MOLECULE
ZINC09427110
   45    47     0     0     0
SMALL
USER_CHARGES
2-[(3,5-dichloro-2-methoxy-benzoyl)thiocarbamoylamino]-4,5,6,7-tetrahydrobenzothiophene-3-carboxamide
@<TRIPOS>ATOM
      1 C1         -0.1344    6.5217   -1.2343 C.3       1 <0>         0.0455
      2 O1         -0.1085    5.8659    0.0350 O.3       1 <0>        -0.3084
      3 C2         -0.0793    4.5093    0.0270 C.ar      1 <0>         0.1829
      4 C3          1.1475    3.8317    0.0117 C.ar      1 <0>        -0.1398
      5 C4          1.1651    2.4345    0.0040 C.ar      1 <0>        -0.0639
      6 C5         -0.0215    1.7317    0.0116 C.ar      1 <0>        -0.0384
      7 C6         -1.2329    2.4054    0.0210 C.ar      1 <0>        -0.0550
      8 C7         -1.2640    3.7868    0.0345 C.ar      1 <0>        -0.0553
      9 Cl1        -2.7872    4.6194    0.0541 Cl        1 <0>        -0.0223
     10 Cl2         0.0021   -0.0041    0.0020 Cl        1 <0>        -0.0366
     11 C8          2.4127    4.5891    0.0042 C.2       1 <0>         0.5410
     12 O2          2.3935    5.8046    0.0109 O.2       1 <0>        -0.3768
     13 N1          3.5904    3.9338   -0.0102 N.am      1 <0>        -0.6343
     14 C9          4.7467    4.6261   -0.0170 C.2       1 <0>         0.4772
     15 S1          4.7197    6.3378   -0.0076 S.2       1 <0>        -0.3718
     16 N2          5.9244    3.9708   -0.0314 N.pl3     1 <0>        -0.5525
     17 C10         7.1132    4.6825   -0.0384 C.2       1 <0>         0.0136
     18 C11         8.4118    4.1924   -0.0473 C.2       1 <0>        -0.1865
     19 C12         9.4950    5.1612   -0.0573 C.2       1 <0>        -0.0831
     20 C13         9.1092    6.4554   -0.0462 C.2       1 <0>        -0.2376
     21 S2          7.3398    6.4002   -0.0307 S.3       1 <0>         0.3232
     22 C14         9.9960    7.6623   -0.0466 C.3       1 <0>        -0.0386
     23 C15        11.4199    7.2164    0.3162 C.3       1 <0>        -0.1167
     24 C16        11.7850    5.9939   -0.5309 C.3       1 <0>        -0.1174
     25 C17        10.9708    4.7823   -0.0735 C.3       1 <0>        -0.0618
     26 C18         8.6806    2.7514   -0.0501 C.2       1 <0>         0.5785
     27 O3          8.7858    2.1541   -1.1054 O.2       1 <0>        -0.5335
     28 N3          8.8113    2.0880    1.1157 N.am      1 <0>        -0.8485
     29 H1         -0.1562    7.6013   -1.0851 H         1 <0>         0.1067
     30 H2          0.7564    6.2513   -1.8012 H         1 <0>         0.0530
     31 H3         -1.0230    6.2129   -1.7848 H         1 <0>         0.0489
     32 H4          2.1067    1.9056   -0.0075 H         1 <0>         0.1440
     33 H5         -2.1575    1.8474    0.0224 H         1 <0>         0.1595
     34 H6          3.6057    2.9640   -0.0155 H         1 <0>         0.4136
     35 H7          5.9397    3.0009   -0.0367 H         1 <0>         0.4132
     36 H8          9.9951    8.1183   -1.0366 H         1 <0>         0.0811
     37 H9          9.6372    8.3818    0.6894 H         1 <0>         0.0796
     38 H10        12.1200    8.0260    0.1101 H         1 <0>         0.0697
     39 H11        11.4631    6.9566    1.3739 H         1 <0>         0.0658
     40 H12        11.5679    6.2015   -1.5787 H         1 <0>         0.0660
     41 H13        12.8474    5.7786   -0.4170 H         1 <0>         0.0665
     42 H14        11.1279    3.9544   -0.7649 H         1 <0>         0.0701
     43 H15        11.2855    4.4873    0.9274 H         1 <0>         0.0719
     44 H16         8.7275    2.5641    1.9567 H         1 <0>         0.4043
     45 H17         8.9892    1.1344    1.1138 H         1 <0>         0.4030
@<TRIPOS>BOND
     1    1    2 1
     2    1   29 1
     3    1   30 1
     4    1   31 1
     5    2    3 1
     6    3    8 ar
     7    3    4 ar
     8    4    5 ar
     9    4   11 1
    10    5    6 ar
    11    5   32 1
    12    6    7 ar
    13    6   10 1
    14    7    8 ar
    15    7   33 1
    16    8    9 1
    17   11   12 2
    18   11   13 am
    19   13   14 1
    20   13   34 1
    21   14   15 2
    22   14   16 1
    23   16   17 1
    24   16   35 1
    25   17   21 1
    26   17   18 2
    27   18   19 1
    28   18   26 1
    29   19   25 1
    30   19   20 2
    31   20   21 1
    32   20   22 1
    33   22   23 1
    34   22   36 1
    35   22   37 1
    36   23   24 1
    37   23   38 1
    38   23   39 1
    39   24   25 1
    40   24   40 1
    41   24   41 1
    42   25   42 1
    43   25   43 1
    44   26   27 2
    45   26   28 am
    46   28   44 1
    47   28   45 1
@<TRIPOS>MOLECULE
ZINC15230546
   53    56     0     0     0
SMALL
USER_CHARGES
(E)-3-(3,5-dihydroxyphenyl)-N-[5-[(4-fluorophenyl)sulfamoyl]-1-naphthyl]prop-2-enamide
@<TRIPOS>ATOM
      1 C1         -3.5605   -0.7562    0.3286 C.ar      1 <0>        -0.0594
      2 C2         -3.4999   -2.1155    0.3850 C.ar      1 <0>        -0.1576
      3 C3         -2.2538   -2.7595    0.4677 C.ar      1 <0>         0.0490
      4 C4         -1.0683   -1.9842    0.4917 C.ar      1 <0>        -0.0853
      5 C5          0.1756   -2.6289    0.5754 C.ar      1 <0>        -0.0412
      6 C6          0.2277   -3.9883    0.6323 C.ar      1 <0>        -0.1456
      7 C7         -0.9376   -4.7520    0.6086 C.ar      1 <0>         0.0188
      8 C8         -2.1609   -4.1609    0.5281 C.ar      1 <0>        -0.6716
      9 S1         -3.6208   -5.1471    0.5002 S.o2      1 <0>         2.6917
     10 O1         -4.4001   -4.6882   -0.5958 O.2       1 <0>        -0.9413
     11 O2         -3.2001   -6.4989    0.6227 O.2       1 <0>        -0.9469
     12 N1         -4.4779   -4.7920    1.8719 N.pl3     1 <0>        -1.0543
     13 C9         -3.9468   -5.1013    3.1278 C.ar      1 <0>         0.1311
     14 C10        -3.3805   -6.3488    3.3553 C.ar      1 <0>        -0.1194
     15 C11        -2.8522   -6.6505    4.5954 C.ar      1 <0>        -0.1308
     16 C12        -2.8962   -5.7139    5.6143 C.ar      1 <0>         0.0936
     17 C13        -3.4650   -4.4714    5.3912 C.ar      1 <0>        -0.1367
     18 C14        -3.9899   -4.1635    4.1512 C.ar      1 <0>        -0.0958
     19 F1         -2.3831   -6.0128    6.8278 F         1 <0>        -0.1367
     20 C15        -1.1614   -0.5772    0.4314 C.ar      1 <0>         0.1678
     21 C16        -2.4034    0.0162    0.3558 C.ar      1 <0>        -0.1286
     22 N2         -0.0075    0.2059    0.4541 N.am      1 <0>        -0.6664
     23 C17        -0.0184    1.4043    1.0706 C.2       1 <0>         0.5510
     24 O3         -1.0580    1.8460    1.5240 O.2       1 <0>        -0.5163
     25 C18         1.2189    2.1774    1.1897 C.2       1 <0>        -0.2154
     26 C19         1.2080    3.3763    1.8066 C.2       1 <0>        -0.0031
     27 C20         2.4524    4.1539    1.9263 C.ar      1 <0>        -0.0476
     28 C21         3.6477    3.6490    1.4065 C.ar      1 <0>        -0.1359
     29 C22         4.8139    4.3867    1.5172 C.ar      1 <0>         0.1237
     30 C23         4.7997    5.6207    2.1522 C.ar      1 <0>        -0.1588
     31 C24         3.6169    6.1241    2.6751 C.ar      1 <0>         0.1243
     32 C25         2.4439    5.3970    2.5653 C.ar      1 <0>        -0.1270
     33 O4          3.6099    7.3331    3.2958 O.3       1 <0>        -0.4939
     34 O5          5.9757    3.8994    1.0077 O.3       1 <0>        -0.4942
     35 H1         -4.5226   -0.2696    0.2652 H         1 <0>         0.1368
     36 H2         -4.4091   -2.6981    0.3658 H         1 <0>         0.1313
     37 H3          1.0869   -2.0496    0.5942 H         1 <0>         0.1317
     38 H4          1.1862   -4.4819    0.6970 H         1 <0>         0.1390
     39 H5         -0.8690   -5.8288    0.6545 H         1 <0>         0.1484
     40 H6         -5.3483   -4.3694    1.8042 H         1 <0>         0.4293
     41 H7         -3.3496   -7.0811    2.5621 H         1 <0>         0.1662
     42 H8         -2.4077   -7.6189    4.7714 H         1 <0>         0.1446
     43 H9         -3.4980   -3.7423    6.1873 H         1 <0>         0.1416
     44 H10        -4.4331   -3.1941    3.9776 H         1 <0>         0.1401
     45 H11        -2.4791    1.0928    0.3140 H         1 <0>         0.1492
     46 H12         0.8029   -0.1119    0.0260 H         1 <0>         0.4135
     47 H13         2.1405    1.7875    0.7835 H         1 <0>         0.1352
     48 H14         0.2864    3.7662    2.2128 H         1 <0>         0.1432
     49 H15         3.6606    2.6870    0.9158 H         1 <0>         0.1376
     50 H16         5.7126    6.1911    2.2400 H         1 <0>         0.1396
     51 H17         1.5240    5.7895    2.9729 H         1 <0>         0.1402
     52 H18         3.7805    7.2881    4.2465 H         1 <0>         0.3962
     53 H19         6.4845    3.3635    1.6314 H         1 <0>         0.3955
@<TRIPOS>BOND
     1    1   21 ar
     2    1    2 ar
     3    1   35 1
     4    2    3 ar
     5    2   36 1
     6    3    8 ar
     7    3    4 ar
     8    4    5 ar
     9    4   20 ar
    10    5    6 ar
    11    5   37 1
    12    6    7 ar
    13    6   38 1
    14    7    8 ar
    15    7   39 1
    16    8    9 1
    17    9   10 2
    18    9   11 2
    19    9   12 1
    20   12   13 1
    21   12   40 1
    22   13   18 ar
    23   13   14 ar
    24   14   15 ar
    25   14   41 1
    26   15   16 ar
    27   15   42 1
    28   16   17 ar
    29   16   19 1
    30   17   18 ar
    31   17   43 1
    32   18   44 1
    33   20   21 ar
    34   20   22 1
    35   21   45 1
    36   22   23 am
    37   22   46 1
    38   23   24 2
    39   23   25 1
    40   25   26 2
    41   25   47 1
    42   26   27 1
    43   26   48 1
    44   27   32 ar
    45   27   28 ar
    46   28   29 ar
    47   28   49 1
    48   29   30 ar
    49   29   34 1
    50   30   31 ar
    51   30   50 1
    52   31   32 ar
    53   31   33 1
    54   32   51 1
    55   33   52 1
    56   34   53 1
@<TRIPOS>MOLECULE
ZINC04552213
   64    68     0     0     0
SMALL
USER_CHARGES

@<TRIPOS>ATOM
      1 C1         -0.9544   -1.6209    1.4526 C.ar      1 <0>        -0.1583
      2 C2         -0.4544   -2.9090    1.5033 C.ar      1 <0>        -0.0802
      3 C3          0.8966   -3.1195    1.6999 C.ar      1 <0>        -0.1513
      4 C4          1.7520   -2.0371    1.8465 C.ar      1 <0>         0.1300
      5 C5          1.2478   -0.7457    1.7953 C.ar      1 <0>        -0.2105
      6 C6         -0.1041   -0.5405    1.5985 C.ar      1 <0>        -0.0802
      7 O1          3.0814   -2.2416    2.0405 O.3       1 <0>        -0.3088
      8 C7          3.9194   -1.0843    2.0621 C.3       1 <0>         0.0637
      9 C8          5.3833   -1.5165    2.1685 C.3       1 <0>         0.0652
     10 O2          5.7583   -2.2239    0.9849 O.3       1 <0>        -0.3135
     11 C9          7.0622   -2.5896    0.8718 C.ar      1 <0>         0.0697
     12 C10         7.4623   -3.8740    1.2714 C.ar      1 <0>         0.2312
     13 C11         8.8010   -4.2467    1.1537 C.ar      1 <0>        -0.1727
     14 C12         9.7469   -3.3278    0.6314 C.ar      1 <0>        -0.1740
     15 C13         9.3351   -2.0545    0.2391 C.ar      1 <0>         0.2322
     16 C14         7.9838   -1.6952    0.3585 C.ar      1 <0>         0.0691
     17 O3          7.5786   -0.4572   -0.0285 O.3       1 <0>        -0.3140
     18 C15         7.0620   -0.3286   -1.3546 C.3       1 <0>         0.0653
     19 C16         6.7758    1.1451   -1.6499 C.3       1 <0>         0.0626
     20 O4          8.0034    1.8765   -1.6576 O.3       1 <0>        -0.3097
     21 C17         7.9184    3.2228   -1.8218 C.ar      1 <0>         0.1298
     22 C18         6.6770    3.8409   -1.8621 C.ar      1 <0>        -0.2102
     23 C19         6.5933    5.2097   -2.0286 C.ar      1 <0>        -0.0801
     24 C20         7.7453    5.9636   -2.1556 C.ar      1 <0>        -0.1581
     25 C21         8.9837    5.3500   -2.1162 C.ar      1 <0>        -0.0800
     26 C22         9.0730    3.9822   -1.9437 C.ar      1 <0>        -0.1516
     27 N1         10.2549   -1.1503   -0.2709 N.pl3     1 <0>        -0.8448
     28 C23        11.1538   -3.7488    0.5149 C.2       1 <0>         0.4489
     29 O5         12.0577   -2.9344    0.5176 O.2       1 <0>        -0.4439
     30 C24        11.4284   -5.2009    0.3947 C.ar      1 <0>        -0.1168
     31 C25        12.5832   -5.6709   -0.2161 C.ar      1 <0>        -0.0706
     32 C26        12.8013   -7.0348   -0.3080 C.ar      1 <0>        -0.1005
     33 C27        11.8793   -7.9308    0.2035 C.ar      1 <0>        -0.1005
     34 C28        10.7228   -7.4784    0.8151 C.ar      1 <0>        -0.0704
     35 C29        10.4889   -6.1137    0.9151 C.ar      1 <0>        -0.1168
     36 C30         9.2633   -5.5848    1.5606 C.2       1 <0>         0.4492
     37 O6          8.6614   -6.2325    2.3965 O.2       1 <0>        -0.4447
     38 N2          6.5318   -4.7675    1.7810 N.pl3     1 <0>        -0.8452
     39 H1         -2.0103   -1.4584    1.2944 H         1 <0>         0.1240
     40 H2         -1.1208   -3.7513    1.3895 H         1 <0>         0.1296
     41 H3          1.2867   -4.1258    1.7398 H         1 <0>         0.1304
     42 H4          1.9116    0.0986    1.9095 H         1 <0>         0.1260
     43 H5         -0.4971    0.4647    1.5586 H         1 <0>         0.1246
     44 H6          3.7748   -0.5138    1.1446 H         1 <0>         0.0741
     45 H7          3.6604   -0.4641    2.9202 H         1 <0>         0.0840
     46 H8          6.0150   -0.6353    2.2807 H         1 <0>         0.0857
     47 H9          5.5083   -2.1659    3.0350 H         1 <0>         0.0689
     48 H10         7.7944   -0.7065   -2.0680 H         1 <0>         0.0679
     49 H11         6.1395   -0.9026   -1.4424 H         1 <0>         0.0864
     50 H12         6.2940    1.2336   -2.6236 H         1 <0>         0.0846
     51 H13         6.1173    1.5485   -0.8806 H         1 <0>         0.0745
     52 H14         5.7768    3.2524   -1.7636 H         1 <0>         0.1264
     53 H15         5.6271    5.6913   -2.0600 H         1 <0>         0.1247
     54 H16         7.6778    7.0336   -2.2861 H         1 <0>         0.1241
     55 H17         9.8822    5.9409   -2.2163 H         1 <0>         0.1297
     56 H18        10.0407    3.5040   -1.9082 H         1 <0>         0.1303
     57 H19        11.1876   -1.4028   -0.3556 H         1 <0>         0.4119
     58 H20         9.9654   -0.2653   -0.5430 H         1 <0>         0.4075
     59 H21        13.3067   -4.9767   -0.6173 H         1 <0>         0.1410
     60 H22        13.6986   -7.4027   -0.7833 H         1 <0>         0.1372
     61 H23        12.0633   -8.9921    0.1245 H         1 <0>         0.1373
     62 H24        10.0069   -8.1829    1.2121 H         1 <0>         0.1411
     63 H25         5.6015   -4.5052    1.8620 H         1 <0>         0.4067
     64 H26         6.8115   -5.6545    2.0564 H         1 <0>         0.4121
@<TRIPOS>BOND
     1    1    6 ar
     2    1    2 ar
     3    1   39 1
     4    2    3 ar
     5    2   40 1
     6    3    4 ar
     7    3   41 1
     8    4    5 ar
     9    4    7 1
    10    5    6 ar
    11    5   42 1
    12    6   43 1
    13    7    8 1
    14    8    9 1
    15    8   44 1
    16    8   45 1
    17    9   10 1
    18    9   46 1
    19    9   47 1
    20   10   11 1
    21   11   16 ar
    22   11   12 ar
    23   12   13 ar
    24   12   38 1
    25   13   36 1
    26   13   14 ar
    27   14   15 ar
    28   14   28 1
    29   15   16 ar
    30   15   27 1
    31   16   17 1
    32   17   18 1
    33   18   19 1
    34   18   48 1
    35   18   49 1
    36   19   20 1
    37   19   50 1
    38   19   51 1
    39   20   21 1
    40   21   26 ar
    41   21   22 ar
    42   22   23 ar
    43   22   52 1
    44   23   24 ar
    45   23   53 1
    46   24   25 ar
    47   24   54 1
    48   25   26 ar
    49   25   55 1
    50   26   56 1
    51   27   57 1
    52   27   58 1
    53   28   29 2
    54   28   30 1
    55   30   35 ar
    56   30   31 ar
    57   31   32 ar
    58   31   59 1
    59   32   33 ar
    60   32   60 1
    61   33   34 ar
    62   33   61 1
    63   34   35 ar
    64   34   62 1
    65   35   36 1
    66   36   37 2
    67   38   63 1
    68   38   64 1
@<TRIPOS>MOLECULE
ZINC40761795
   45    47     0     0     0
SMALL
USER_CHARGES

@<TRIPOS>ATOM
      1 C1         -3.2637   -2.6225    0.2360 C.3       1 <0>        -0.1527
      2 C2         -1.9753   -1.8238    0.4437 C.3       1 <0>         0.0611
      3 O1         -1.2103   -2.4185    1.4939 O.3       1 <0>        -0.3494
      4 C3         -0.0376   -1.8316    1.8044 C.2       1 <0>         0.5114
      5 O2          0.3254   -0.8420    1.1999 O.2       1 <0>        -0.5096
      6 C4          0.8048   -2.3902    2.8773 C.ar      1 <0>        -0.1544
      7 C5          0.3913   -3.5325    3.5700 C.ar      1 <0>        -0.0358
      8 C6          1.1775   -4.0498    4.5672 C.ar      1 <0>        -0.1329
      9 C7          2.3861   -3.4388    4.8906 C.ar      1 <0>         0.2075
     10 C8          2.8008   -2.3014    4.2029 C.ar      1 <0>        -0.1694
     11 C9          2.0221   -1.7823    3.2008 C.ar      1 <0>        -0.0274
     12 N1          3.1809   -3.9657    5.9035 N.pl3     1 <0>        -0.6524
     13 C10         3.2146   -5.3395    6.1175 C.ar      1 <0>         0.3875
     14 C11         3.9240   -5.8719    7.1958 C.ar      1 <0>         0.0233
     15 C12         3.9249   -7.2579    7.3645 C.ar      1 <0>         0.3906
     16 N2          3.2544   -8.0131    6.4974 N.ar      1 <0>        -0.5503
     17 C13         2.5974   -7.4700    5.4928 C.ar      1 <0>         0.3230
     18 N3          2.5665   -6.1667    5.3010 N.ar      1 <0>        -0.5497
     19 N4          4.6157   -7.8402    8.4213 N.pl3     1 <0>        -0.6542
     20 C14         4.7053   -9.2319    8.5154 C.ar      1 <0>         0.1859
     21 C15         4.7409   -9.8444    9.7617 C.ar      1 <0>        -0.1519
     22 C16         4.8290  -11.2196    9.8514 C.ar      1 <0>        -0.0620
     23 C17         4.8823  -11.9872    8.7017 C.ar      1 <0>        -0.1205
     24 C18         4.8471  -11.3802    7.4590 C.ar      1 <0>        -0.0626
     25 C19         4.7533  -10.0058    7.3627 C.ar      1 <0>        -0.1128
     26 I1          5.0173  -14.0730    8.8427 I         1 <0>        -0.0460
     27 N5          4.6176   -5.0368    8.0855 N.pl3     1 <0>        -0.8734
     28 H1         -3.8463   -2.6182    1.1572 H         1 <0>         0.0670
     29 H2         -3.8473   -2.1689   -0.5651 H         1 <0>         0.0803
     30 H3         -3.0153   -3.6494   -0.0321 H         1 <0>         0.0675
     31 H4         -1.3927   -1.8281   -0.4775 H         1 <0>         0.0683
     32 H5         -2.2237   -0.7969    0.7118 H         1 <0>         0.0680
     33 H6         -0.5464   -4.0065    3.3201 H         1 <0>         0.1405
     34 H7          0.8587   -4.9319    5.1026 H         1 <0>         0.1454
     35 H8          3.7388   -1.8299    4.4562 H         1 <0>         0.1331
     36 H9          2.3462   -0.9024    2.6649 H         1 <0>         0.1402
     37 H10         3.7117   -3.3750    6.4605 H         1 <0>         0.4163
     38 H11         2.0642   -8.1126    4.8078 H         1 <0>         0.2020
     39 H12         5.0354   -7.2806    9.0933 H         1 <0>         0.4154
     40 H13         4.7000   -9.2456   10.6596 H         1 <0>         0.1303
     41 H14         4.8566  -11.6964   10.8200 H         1 <0>         0.1314
     42 H15         4.8893  -11.9821    6.5633 H         1 <0>         0.1313
     43 H16         4.7217   -9.5327    6.3924 H         1 <0>         0.1446
     44 H17         4.6084   -4.0756    7.9556 H         1 <0>         0.3977
     45 H18         5.1063   -5.4209    8.8302 H         1 <0>         0.3978
@<TRIPOS>BOND
     1    1    2 1
     2    1   28 1
     3    1   29 1
     4    1   30 1
     5    2    3 1
     6    2   31 1
     7    2   32 1
     8    3    4 1
     9    4    5 2
    10    4    6 1
    11    6   11 ar
    12    6    7 ar
    13    7    8 ar
    14    7   33 1
    15    8    9 ar
    16    8   34 1
    17    9   10 ar
    18    9   12 1
    19   10   11 ar
    20   10   35 1
    21   11   36 1
    22   12   13 1
    23   12   37 1
    24   13   18 ar
    25   13   14 ar
    26   14   15 ar
    27   14   27 1
    28   15   16 ar
    29   15   19 1
    30   16   17 ar
    31   17   18 ar
    32   17   38 1
    33   19   20 1
    34   19   39 1
    35   20   25 ar
    36   20   21 ar
    37   21   22 ar
    38   21   40 1
    39   22   23 ar
    40   22   41 1
    41   23   24 ar
    42   23   26 1
    43   24   25 ar
    44   24   42 1
    45   25   43 1
    46   27   44 1
    47   27   45 1
@<TRIPOS>MOLECULE
ZINC16385228
   45    48     0     0     0
SMALL
USER_CHARGES

@<TRIPOS>ATOM
      1 C1         -0.0167    1.3806    0.0096 C.ar      1 <0>        -0.0798
      2 C2          1.1679    2.0949    0.0022 C.ar      1 <0>        -0.0952
      3 C3          2.3782    1.4307   -0.0134 C.ar      1 <0>        -0.0125
      4 C4          2.4046    0.0331   -0.0212 C.ar      1 <0>        -0.0132
      5 C5          1.2051   -0.6813   -0.0131 C.ar      1 <0>        -0.0676
      6 C6          0.0021   -0.0041    0.0020 C.ar      1 <0>        -0.0324
      7 Cl1        -1.4906   -0.8904    0.0121 Cl        1 <0>        -0.0446
      8 C7          3.6951   -0.6842   -0.0384 C.2       1 <0>         0.0679
      9 C8          4.0510   -1.7027    0.7992 C.2       1 <0>        -0.1853
     10 C9          5.3456   -2.0936    0.4445 C.2       1 <0>        -0.0878
     11 C10         5.7302   -1.2884   -0.6064 C.2       1 <0>        -0.0873
     12 O1          4.7116   -0.4472   -0.8842 O.3       1 <0>        -0.1495
     13 C11         7.0166   -1.3403   -1.3030 C.2       1 <0>         0.5912
     14 O2          7.8600   -2.1495   -0.9639 O.2       1 <0>        -0.3863
     15 N1          7.2669   -0.4920   -2.3200 N.am      1 <0>        -0.6315
     16 C12         8.4513   -0.5398   -2.9614 C.2       1 <0>         0.4782
     17 S1          9.6378   -1.6780   -2.4843 S.2       1 <0>        -0.3633
     18 N2          8.7016    0.3085   -3.9783 N.pl3     1 <0>        -0.5490
     19 C13         9.9193    0.2594   -4.6377 C.2       1 <0>        -0.0205
     20 C14        10.3495    1.0478   -5.6893 C.2       1 <0>        -0.1846
     21 C15        11.6912    0.7935   -6.2118 C.2       1 <0>        -0.1098
     22 C16        12.3449   -0.2004   -5.5845 C.2       1 <0>        -0.2701
     23 S2         11.2133   -0.7650   -4.3393 S.3       1 <0>         0.3980
     24 C17        13.7160   -0.4228   -6.1631 C.3       1 <0>        -0.0372
     25 C18        13.6812    0.2885   -7.5340 C.3       1 <0>        -0.1186
     26 C19        12.5945    1.3586   -7.3060 C.3       1 <0>        -0.0591
     27 C20         9.4953    2.0950   -6.2570 C.2       1 <0>         0.5785
     28 O3          9.5390    3.2256   -5.8085 O.2       1 <0>        -0.5345
     29 N3          8.6614    1.8058   -7.2756 N.am      1 <0>        -0.8490
     30 Cl2         3.8636    2.3291   -0.0240 Cl        1 <0>        -0.0419
     31 H1         -0.9606    1.9052    0.0260 H         1 <0>         0.1514
     32 H2          1.1460    3.1747    0.0082 H         1 <0>         0.1527
     33 H3          1.2183   -1.7612   -0.0194 H         1 <0>         0.1527
     34 H4          3.4462   -2.1262    1.5874 H         1 <0>         0.1681
     35 H5          5.9315   -2.8750    0.9053 H         1 <0>         0.1735
     36 H6          6.5946    0.1529   -2.5903 H         1 <0>         0.4213
     37 H7          8.0294    0.9534   -4.2486 H         1 <0>         0.4141
     38 H8         14.4761    0.0241   -5.5223 H         1 <0>         0.0823
     39 H9         13.9056   -1.4884   -6.2926 H         1 <0>         0.0775
     40 H10        14.6427    0.7505   -7.7582 H         1 <0>         0.0797
     41 H11        13.3884   -0.4025   -8.3246 H         1 <0>         0.0740
     42 H12        12.0241    1.5182   -8.2211 H         1 <0>         0.0664
     43 H13        13.0484    2.2928   -6.9756 H         1 <0>         0.0770
     44 H14         8.6266    0.9047   -7.6330 H         1 <0>         0.4040
     45 H15         8.0962    2.4988   -7.6513 H         1 <0>         0.4024
@<TRIPOS>BOND
     1    1    6 ar
     2    1    2 ar
     3    1   31 1
     4    2    3 ar
     5    2   32 1
     6    3    4 ar
     7    3   30 1
     8    4    5 ar
     9    4    8 1
    10    5    6 ar
    11    5   33 1
    12    6    7 1
    13    8   12 1
    14    8    9 2
    15    9   10 1
    16    9   34 1
    17   10   11 2
    18   10   35 1
    19   11   12 1
    20   11   13 1
    21   13   14 2
    22   13   15 am
    23   15   16 1
    24   15   36 1
    25   16   17 2
    26   16   18 1
    27   18   19 1
    28   18   37 1
    29   19   23 1
    30   19   20 2
    31   20   21 1
    32   20   27 1
    33   21   26 1
    34   21   22 2
    35   22   23 1
    36   22   24 1
    37   24   25 1
    38   24   38 1
    39   24   39 1
    40   25   26 1
    41   25   40 1
    42   25   41 1
    43   26   42 1
    44   26   43 1
    45   27   28 2
    46   27   29 am
    47   29   44 1
    48   29   45 1
@<TRIPOS>MOLECULE
ZINC05360975
   44    48     0     0     0
SMALL
USER_CHARGES
N-[(1,2-dimethylindol-3-yl)methyleneamino]BLAHamine
@<TRIPOS>ATOM
      1 C1         -2.5582    6.5938    0.0612 C.3       1 <0>        -0.1009
      2 C2         -1.7440    5.3258    0.0463 C.2       1 <0>         0.1281
      3 C3         -0.3855    5.2677    0.0330 C.2       1 <0>        -0.1478
      4 C4         -0.0253    3.8390    0.0220 C.ar      1 <0>        -0.0753
      5 C5          1.1838    3.1466    0.0072 C.ar      1 <0>        -0.0592
      6 C6          1.1836    1.7794    0.0003 C.ar      1 <0>        -0.1428
      7 C7         -0.0126    1.0758    0.0080 C.ar      1 <0>        -0.0975
      8 C8         -1.2185    1.7417    0.0173 C.ar      1 <0>        -0.1310
      9 C9         -1.2399    3.1332    0.0298 C.ar      1 <0>         0.0887
     10 N1         -2.2581    4.0620    0.0444 N.pl3     1 <0>        -0.4740
     11 C10        -3.6870    3.7388    0.0563 C.3       1 <0>         0.0736
     12 C11         0.5442    6.4097    0.0307 C.2       1 <0>         0.1534
     13 N2          1.8264    6.2033    0.0173 N.2       1 <0>        -0.2220
     14 N3          2.7109    7.2898    0.0151 N.pl3     1 <0>        -0.5377
     15 C12         4.0767    7.0698    0.0009 C.ar      1 <0>         0.5565
     16 N4          4.9029    8.1079   -0.0065 N.ar      1 <0>        -0.5540
     17 C13         6.2150    7.8946   -0.0147 C.ar      1 <0>         0.3982
     18 C14         6.6769    6.5620   -0.0267 C.ar      1 <0>        -0.0394
     19 C15         8.1480    6.6340   -0.0403 C.ar      1 <0>        -0.0727
     20 C16         9.1567    5.6734   -0.0560 C.ar      1 <0>        -0.0462
     21 C17        10.4775    6.0671   -0.0670 C.ar      1 <0>        -0.1373
     22 C18        10.8045    7.4143   -0.0624 C.ar      1 <0>        -0.0745
     23 C19         9.8163    8.3753   -0.0465 C.ar      1 <0>        -0.1303
     24 C20         8.4776    7.9981   -0.0356 C.ar      1 <0>         0.1448
     25 N5          7.3027    8.7323   -0.0203 N.pl3     1 <0>        -0.5857
     26 H1          7.2554    9.7011   -0.0143 H         1 <0>         0.4280
     27 N6          5.7998    5.5688   -0.0240 N.ar      1 <0>        -0.1049
     28 N7          4.5360    5.8226   -0.0106 N.ar      1 <0>        -0.2972
     29 H2         -2.7646    6.9052   -0.9628 H         1 <0>         0.0851
     30 H3         -3.4983    6.4158    0.5834 H         1 <0>         0.0749
     31 H4         -2.0006    7.3776    0.5739 H         1 <0>         0.0872
     32 H5          2.1182    3.6882    0.0015 H         1 <0>         0.1401
     33 H6          2.1210    1.2431   -0.0115 H         1 <0>         0.1243
     34 H7          0.0021   -0.0041    0.0020 H         1 <0>         0.1250
     35 H8         -2.1444    1.1856    0.0190 H         1 <0>         0.1180
     36 H9         -4.0512    3.6645   -0.9683 H         1 <0>         0.0734
     37 H10        -3.8401    2.7876    0.5662 H         1 <0>         0.0844
     38 H11        -4.2327    4.5237    0.5799 H         1 <0>         0.0854
     39 H12         0.1598    7.4190    0.0401 H         1 <0>         0.1190
     40 H13         2.3656    8.1962    0.0236 H         1 <0>         0.4002
     41 H14         8.9045    4.6232   -0.0599 H         1 <0>         0.1374
     42 H15        11.2605    5.3234   -0.0796 H         1 <0>         0.1352
     43 H16        11.8422    7.7134   -0.0711 H         1 <0>         0.1368
     44 H17        10.0819    9.4222   -0.0430 H         1 <0>         0.1328
@<TRIPOS>BOND
     1    1    2 1
     2    1   29 1
     3    1   30 1
     4    1   31 1
     5    2   10 1
     6    2    3 2
     7    3    4 1
     8    3   12 1
     9    4    9 ar
    10    4    5 ar
    11    5    6 ar
    12    5   32 1
    13    6    7 ar
    14    6   33 1
    15    7    8 ar
    16    7   34 1
    17    8    9 ar
    18    8   35 1
    19    9   10 1
    20   10   11 1
    21   11   36 1
    22   11   37 1
    23   11   38 1
    24   12   13 2
    25   12   39 1
    26   13   14 1
    27   14   15 1
    28   14   40 1
    29   15   28 ar
    30   15   16 ar
    31   16   17 ar
    32   17   25 1
    33   17   18 ar
    34   18   19 1
    35   18   27 ar
    36   19   24 ar
    37   19   20 ar
    38   20   21 ar
    39   20   41 1
    40   21   22 ar
    41   21   42 1
    42   22   23 ar
    43   22   43 1
    44   23   24 ar
    45   23   44 1
    46   24   25 1
    47   25   26 1
    48   27   28 ar
@<TRIPOS>MOLECULE
ZINC12712495
   45    49     0     0     0
SMALL
USER_CHARGES
4-[[[5-(1-naphthyl)-1,2,4-triazin-3-yl]amino]methyl]-2H-phthalazin-1-one
@<TRIPOS>ATOM
      1 C1         -7.1217    4.5061   -2.2127 C.ar      1 <0>        -0.1134
      2 C2         -6.0243    3.6485   -2.2437 C.ar      1 <0>        -0.1094
      3 C3         -6.0096    2.5029   -1.5069 C.ar      1 <0>        -0.1010
      4 C4         -7.1106    2.1822   -0.6998 C.ar      1 <0>        -0.0171
      5 C5         -8.2295    3.0500   -0.6716 C.ar      1 <0>        -0.0557
      6 C6         -8.2098    4.2237   -1.4451 C.ar      1 <0>        -0.1041
      7 C7         -9.3361    2.7271    0.1323 C.ar      1 <0>        -0.0795
      8 C8         -9.3315    1.5837    0.8730 C.ar      1 <0>        -0.1223
      9 C9         -8.2444    0.7179    0.8520 C.ar      1 <0>        -0.0717
     10 C10        -7.1335    0.9975    0.0746 C.ar      1 <0>        -0.0543
     11 C11        -5.9795    0.0706    0.0581 C.ar      1 <0>         0.2474
     12 C12        -6.1699   -1.3052   -0.1178 C.ar      1 <0>        -0.0572
     13 N1         -5.1188   -2.1033   -0.1270 N.ar      1 <0>        -0.1423
     14 N2         -3.9330   -1.6267    0.0234 N.ar      1 <0>        -0.3348
     15 C13        -3.7232   -0.3270    0.1920 C.ar      1 <0>         0.5079
     16 N3         -4.7368    0.5275    0.2159 N.ar      1 <0>        -0.5087
     17 N4         -2.4303    0.1417    0.3505 N.pl3     1 <0>        -0.6840
     18 C14        -1.3041   -0.7950    0.3316 C.3       1 <0>         0.1998
     19 C15        -0.0163   -0.0362    0.5235 C.2       1 <0>         0.1335
     20 C16         1.2591   -0.7528    0.5418 C.ar      1 <0>        -0.0603
     21 C17         1.3280   -2.1384    0.3851 C.ar      1 <0>        -0.0944
     22 C18         2.5440   -2.7624    0.4090 C.ar      1 <0>        -0.0851
     23 C19         3.7149   -2.0369    0.5873 C.ar      1 <0>        -0.1062
     24 C20         3.6777   -0.6687    0.7440 C.ar      1 <0>        -0.0545
     25 C21         2.4485   -0.0108    0.7235 C.ar      1 <0>        -0.1223
     26 C22         2.3418    1.4445    0.8848 C.2       1 <0>         0.5306
     27 O1          3.3388    2.1260    1.0436 O.2       1 <0>        -0.5154
     28 N5          1.1183    2.0128    0.8534 N.am      1 <0>        -0.5285
     29 H1          1.0414    2.9739    0.9594 H         1 <0>         0.4385
     30 N6         -0.0388    1.2548    0.6724 N.2       1 <0>        -0.2385
     31 H2         -7.1089    5.4084   -2.8061 H         1 <0>         0.1257
     32 H3         -5.1728    3.8956   -2.8604 H         1 <0>         0.1238
     33 H4         -5.1523    1.8469   -1.5406 H         1 <0>         0.1271
     34 H5         -9.0533    4.8979   -1.4301 H         1 <0>         0.1309
     35 H6        -10.1910    3.3864    0.1633 H         1 <0>         0.1331
     36 H7        -10.1877    1.3456    1.4868 H         1 <0>         0.1334
     37 H8         -8.2663   -0.1821    1.4487 H         1 <0>         0.1324
     38 H9         -7.1638   -1.7081   -0.2446 H         1 <0>         0.1860
     39 H10        -2.2701    1.0904    0.4741 H         1 <0>         0.4281
     40 H11        -1.2801   -1.3150   -0.6261 H         1 <0>         0.1067
     41 H12        -1.4216   -1.5208    1.1363 H         1 <0>         0.1065
     42 H13         0.4251   -2.7145    0.2460 H         1 <0>         0.1453
     43 H14         2.5950   -3.8343    0.2872 H         1 <0>         0.1394
     44 H15         4.6647   -2.5507    0.6029 H         1 <0>         0.1394
     45 H16         4.5921   -0.1108    0.8815 H         1 <0>         0.1451
@<TRIPOS>BOND
     1    1    6 ar
     2    1    2 ar
     3    1   31 1
     4    2    3 ar
     5    2   32 1
     6    3    4 ar
     7    3   33 1
     8    4   10 ar
     9    4    5 ar
    10    5    6 ar
    11    5    7 ar
    12    6   34 1
    13    7    8 ar
    14    7   35 1
    15    8    9 ar
    16    8   36 1
    17    9   10 ar
    18    9   37 1
    19   10   11 1
    20   11   16 ar
    21   11   12 ar
    22   12   13 ar
    23   12   38 1
    24   13   14 ar
    25   14   15 ar
    26   15   16 ar
    27   15   17 1
    28   17   18 1
    29   17   39 1
    30   18   19 1
    31   18   40 1
    32   18   41 1
    33   19   30 2
    34   19   20 1
    35   20   25 ar
    36   20   21 ar
    37   21   22 ar
    38   21   42 1
    39   22   23 ar
    40   22   43 1
    41   23   24 ar
    42   23   44 1
    43   24   25 ar
    44   24   45 1
    45   25   26 1
    46   26   27 2
    47   26   28 am
    48   28   29 1
    49   28   30 1
@<TRIPOS>MOLECULE
ZINC14479266
   47    50     0     0     0
SMALL
USER_CHARGES

@<TRIPOS>ATOM
      1 C1          0.0708    1.2046    0.1168 C.3       1 <0>         0.0248
      2 O1          0.0549   -0.2243    0.1262 O.3       1 <0>        -0.3048
      3 C2         -1.1636   -0.8282    0.1214 C.ar      1 <0>         0.1079
      4 C3         -2.3181   -0.0622    0.1021 C.ar      1 <0>        -0.1706
      5 C4         -3.5560   -0.6777    0.0968 C.ar      1 <0>        -0.0987
      6 C5         -3.6455   -2.0572    0.1111 C.ar      1 <0>        -0.0975
      7 C6         -2.4976   -2.8273    0.1308 C.ar      1 <0>        -0.1560
      8 C7         -1.2537   -2.2168    0.1301 C.ar      1 <0>         0.1036
      9 O2         -0.1234   -2.9730    0.1434 O.3       1 <0>        -0.3041
     10 C8         -0.2923   -4.3919    0.1517 C.3       1 <0>         0.0246
     11 C9         -4.9975   -2.7229    0.1057 C.3       1 <0>         0.2109
     12 H1         -4.9135   -3.7476    0.4677 H         1 <0>         0.0863
     13 C10        -5.5841   -2.7077   -1.2946 C.3       1 <0>        -0.0977
     14 H2         -5.7505   -1.6892   -1.6452 H         1 <0>         0.0961
     15 C11        -4.8804   -3.5614   -2.3578 C.3       1 <0>        -0.0847
     16 C12        -6.0420   -3.9110   -3.2901 C.2       1 <0>        -0.1524
     17 C13        -7.1880   -3.8746   -2.6209 C.2       1 <0>        -0.1690
     18 C14        -6.9143   -3.5132   -1.1963 C.3       1 <0>        -0.0414
     19 H3         -6.7015   -4.4392   -0.6622 H         1 <0>         0.0990
     20 C15        -7.8582   -2.7306   -0.3690 C.ar      1 <0>        -0.0756
     21 C16        -9.2161   -2.7124   -0.6121 C.ar      1 <0>         0.0104
     22 C17       -10.0616   -1.9767    0.1965 C.ar      1 <0>        -0.1070
     23 C18        -9.5479   -1.2536    1.2579 C.ar      1 <0>        -0.0906
     24 C19        -8.1875   -1.2604    1.5083 C.ar      1 <0>         0.0723
     25 C20        -7.3272   -1.9941    0.6930 C.ar      1 <0>         0.2079
     26 N1         -5.9463   -1.9601    0.9461 N.pl3     1 <0>        -0.7281
     27 O3         -7.6874   -0.5485    2.5537 O.3       1 <0>        -0.4860
     28 N2         -9.7708   -3.4851   -1.7461 N.pl3     1 <0>         0.0283
     29 O4        -10.4758   -2.9389   -2.5624 O.2       1 <0>        -0.1455
     30 O5         -9.5187   -4.6624   -1.8562 O.3       1 <0>        -0.1399
     31 H4          1.1024    1.5565    0.1220 H         1 <0>         0.1031
     32 H5         -0.4324    1.5676   -0.7793 H         1 <0>         0.0563
     33 H6         -0.4454    1.5795    1.0006 H         1 <0>         0.0561
     34 H7         -2.2509    1.0157    0.0916 H         1 <0>         0.1381
     35 H8         -4.4550   -0.0795    0.0817 H         1 <0>         0.1279
     36 H9         -2.5703   -3.9048    0.1424 H         1 <0>         0.1378
     37 H10         0.6852   -4.8741    0.1620 H         1 <0>         0.1030
     38 H11        -0.8519   -4.6861    1.0395 H         1 <0>         0.0554
     39 H12        -0.8389   -4.6980   -0.7403 H         1 <0>         0.0563
     40 H13        -4.1192   -2.9834   -2.8819 H         1 <0>         0.0796
     41 H14        -4.4505   -4.4601   -1.9155 H         1 <0>         0.0838
     42 H15        -5.9442   -4.1515   -4.3385 H         1 <0>         0.1362
     43 H16        -8.1671   -4.0588   -3.0379 H         1 <0>         0.1396
     44 H17       -11.1234   -1.9662   -0.0004 H         1 <0>         0.1471
     45 H18       -10.2100   -0.6825    1.8919 H         1 <0>         0.1529
     46 H19        -5.6082   -1.4265    1.6822 H         1 <0>         0.4116
     47 H20        -7.6431   -1.0450    3.3823 H         1 <0>         0.3925
@<TRIPOS>BOND
     1    1    2 1
     2    1   31 1
     3    1   32 1
     4    1   33 1
     5    2    3 1
     6    3    8 ar
     7    3    4 ar
     8    4    5 ar
     9    4   34 1
    10    5    6 ar
    11    5   35 1
    12    6    7 ar
    13    6   11 1
    14    7    8 ar
    15    7   36 1
    16    8    9 1
    17    9   10 1
    18   10   37 1
    19   10   38 1
    20   10   39 1
    21   11   12 1
    22   11   26 1
    23   11   13 1
    24   13   14 1
    25   13   18 1
    26   13   15 1
    27   15   16 1
    28   15   40 1
    29   15   41 1
    30   16   17 2
    31   16   42 1
    32   17   18 1
    33   17   43 1
    34   18   19 1
    35   18   20 1
    36   20   25 ar
    37   20   21 ar
    38   21   22 ar
    39   21   28 1
    40   22   23 ar
    41   22   44 1
    42   23   24 ar
    43   23   45 1
    44   24   25 ar
    45   24   27 1
    46   25   26 1
    47   26   46 1
    48   27   47 1
    49   28   29 2
    50   28   30 1
@<TRIPOS>MOLECULE
ZINC39353086
   43    44     0     0     0
SMALL
USER_CHARGES

@<TRIPOS>ATOM
      1 C1         -0.0187    1.5258    0.0104 C.3       1 <0>        -0.1470
      2 C2          0.0021   -0.0041    0.0020 C.3       1 <0>        -0.0012
      3 C3          0.7421   -0.5109    1.2415 C.3       1 <0>        -0.1416
      4 C4         -1.4333   -0.5336    0.0129 C.3       1 <0>        -0.1404
      5 C5          0.7074   -0.4901   -1.2379 C.2       1 <0>        -0.0029
      6 C6          1.2328    0.3056   -2.1720 C.2       1 <0>        -0.1602
      7 C7          1.8146   -0.6599   -3.1894 C.3       1 <0>        -0.0598
      8 H1          1.3323   -0.5351   -4.1589 H         1 <0>         0.1733
      9 N1          1.4958   -1.9781   -2.6149 N.2       1 <0>        -0.1157
     10 N2          0.8989   -1.7905   -1.5518 N.2       1 <0>        -0.1445
     11 C8          3.3051   -0.4732   -3.3097 C.2       1 <0>         0.5730
     12 O1          4.0595   -1.2298   -2.7352 O.2       1 <0>        -0.4665
     13 N3          3.8000    0.5344   -4.0556 N.am      1 <0>        -0.5784
     14 N4          5.1857    0.7080   -4.1675 N.2       1 <0>        -0.2166
     15 C9          5.6622    1.6782   -4.8858 C.2       1 <0>         0.1151
     16 C10         7.1204    1.8609   -5.0035 C.ar      1 <0>        -0.0146
     17 C11         7.6353    2.9086   -5.7718 C.ar      1 <0>        -0.1635
     18 C12         9.0031    3.0760   -5.8788 C.ar      1 <0>         0.1144
     19 C13         9.8658    2.2016   -5.2216 C.ar      1 <0>         0.1036
     20 C14         9.3555    1.1607   -4.4583 C.ar      1 <0>        -0.0318
     21 C15         7.9906    0.9907   -4.3427 C.ar      1 <0>        -0.0915
     22 Cl1        10.4360    0.0742   -3.6424 Cl        1 <0>        -0.0364
     23 O2         11.2110    2.3679   -5.3286 O.3       1 <0>        -0.4723
     24 O3          9.5069    4.0944   -6.6261 O.3       1 <0>        -0.3004
     25 C16         8.5647    4.9524   -7.2727 C.3       1 <0>         0.0220
     26 H2          1.0039    1.9031    0.0027 H         1 <0>         0.0588
     27 H3         -0.5459    1.8868   -0.8726 H         1 <0>         0.0599
     28 H4         -0.5289    1.8773    0.9072 H         1 <0>         0.0709
     29 H5          0.2319   -0.1594    2.1383 H         1 <0>         0.0669
     30 H6          0.7568   -1.6008    1.2356 H         1 <0>         0.0676
     31 H7          1.7647   -0.1336    1.2338 H         1 <0>         0.0555
     32 H8         -1.9605   -0.1726   -0.8702 H         1 <0>         0.0554
     33 H9         -1.4185   -1.6235    0.0069 H         1 <0>         0.0675
     34 H10        -1.9435   -0.1821    0.9097 H         1 <0>         0.0665
     35 H11         1.2417    1.3852   -2.1983 H         1 <0>         0.1793
     36 H12         3.1968    1.1393   -4.5150 H         1 <0>         0.3900
     37 H13         4.9906    2.3518   -5.3973 H         1 <0>         0.1293
     38 H14         6.9658    3.5858   -6.2813 H         1 <0>         0.1458
     39 H15         7.5956    0.1825   -3.7449 H         1 <0>         0.1530
     40 H16        11.5916    2.9414   -4.6493 H         1 <0>         0.3934
     41 H17         9.0977    5.7198   -7.8340 H         1 <0>         0.1062
     42 H18         7.9477    4.3665   -7.9540 H         1 <0>         0.0594
     43 H19         7.9300    5.4252   -6.5233 H         1 <0>         0.0587
@<TRIPOS>BOND
     1    1    2 1
     2    1   26 1
     3    1   27 1
     4    1   28 1
     5    2    3 1
     6    2    4 1
     7    2    5 1
     8    3   29 1
     9    3   30 1
    10    3   31 1
    11    4   32 1
    12    4   33 1
    13    4   34 1
    14    5   10 1
    15    5    6 2
    16    6    7 1
    17    6   35 1
    18    7    8 1
    19    7    9 1
    20    7   11 1
    21    9   10 2
    22   11   12 2
    23   11   13 am
    24   13   14 1
    25   13   36 1
    26   14   15 2
    27   15   16 1
    28   15   37 1
    29   16   21 ar
    30   16   17 ar
    31   17   18 ar
    32   17   38 1
    33   18   19 ar
    34   18   24 1
    35   19   20 ar
    36   19   23 1
    37   20   21 ar
    38   20   22 1
    39   21   39 1
    40   23   40 1
    41   24   25 1
    42   25   41 1
    43   25   42 1
    44   25   43 1
@<TRIPOS>MOLECULE
ZINC59856202
   39    41     0     0     0
SMALL
USER_CHARGES

@<TRIPOS>ATOM
      1 C1         -1.5209    0.0397   -0.0158 C.3       1 <0>         0.0659
      2 N1         -1.1681   -1.3739    0.1383 N.pl3     1 <0>        -0.4614
      3 C2         -1.2281   -2.3554   -0.8239 C.2       1 <0>         0.2451
      4 N2         -0.8241   -3.4710   -0.2618 N.2       1 <0>        -0.2764
      5 N3         -0.5200   -3.2574    0.9684 N.2       1 <0>        -0.2880
      6 C3         -0.7054   -1.9913    1.2660 C.2       1 <0>         0.1552
      7 S1         -0.4148   -1.2317    2.8291 S.3       1 <0>         0.0435
      8 C4          0.1841   -2.5895    3.8723 C.3       1 <0>        -0.0840
      9 C5          0.4745   -2.0690    5.2565 C.ar      1 <0>        -0.0177
     10 C6          1.7284   -1.5720    5.5592 C.ar      1 <0>        -0.0148
     11 C7          1.9950   -1.0951    6.8289 C.ar      1 <0>        -0.0545
     12 C8          1.0079   -1.1149    7.7968 C.ar      1 <0>        -0.0905
     13 C9         -0.2461   -1.6111    7.4952 C.ar      1 <0>        -0.0629
     14 C10        -0.5153   -2.0834    6.2227 C.ar      1 <0>        -0.0217
     15 Cl1        -2.0925   -2.7003    5.8410 Cl        1 <0>        -0.0216
     16 N4          2.7857   -1.5509    4.5238 N.pl3     1 <0>         0.0222
     17 O1          3.9308   -1.7963    4.8241 O.2       1 <0>        -0.1449
     18 O2          2.5043   -1.2884    3.3777 O.3       1 <0>        -0.1231
     19 C11        -1.6655   -2.1861   -2.2255 C.ar      1 <0>        -0.0841
     20 C12        -1.6845   -0.9154   -2.8038 C.ar      1 <0>        -0.0588
     21 C13        -2.0928   -0.7608   -4.1108 C.ar      1 <0>        -0.1970
     22 C14        -2.4861   -1.8686   -4.8535 C.ar      1 <0>         0.2342
     23 C15        -2.4684   -3.1354   -4.2804 C.ar      1 <0>        -0.1969
     24 C16        -2.0551   -3.2974   -2.9759 C.ar      1 <0>        -0.0202
     25 N5         -2.9001   -1.7087   -6.1767 N.pl3     1 <0>        -0.8718
     26 H1         -0.6772    0.5799   -0.4452 H         1 <0>         0.0900
     27 H2         -2.3835    0.1290   -0.6760 H         1 <0>         0.0993
     28 H3         -1.7643    0.4618    0.9593 H         1 <0>         0.0949
     29 H4         -0.5774   -3.3673    3.9289 H         1 <0>         0.1228
     30 H5          1.0955   -3.0039    3.4414 H         1 <0>         0.1149
     31 H6          2.9749   -0.7072    7.0650 H         1 <0>         0.1595
     32 H7          1.2170   -0.7427    8.7889 H         1 <0>         0.1621
     33 H8         -1.0170   -1.6267    8.2514 H         1 <0>         0.1590
     34 H9         -1.3798   -0.0544   -2.2273 H         1 <0>         0.1266
     35 H10        -2.1077    0.2218   -4.5587 H         1 <0>         0.1274
     36 H11        -2.7748   -3.9939   -4.8597 H         1 <0>         0.1293
     37 H12        -2.0369   -4.2822   -2.5329 H         1 <0>         0.1361
     38 H13        -2.9132   -0.8254   -6.5773 H         1 <0>         0.4007
     39 H14        -3.1747   -2.4808   -6.6957 H         1 <0>         0.4015
@<TRIPOS>BOND
     1    1    2 1
     2    1   26 1
     3    1   27 1
     4    1   28 1
     5    2    6 1
     6    2    3 1
     7    3    4 2
     8    3   19 1
     9    4    5 1
    10    5    6 2
    11    6    7 1
    12    7    8 1
    13    8    9 1
    14    8   29 1
    15    8   30 1
    16    9   14 ar
    17    9   10 ar
    18   10   11 ar
    19   10   16 1
    20   11   12 ar
    21   11   31 1
    22   12   13 ar
    23   12   32 1
    24   13   14 ar
    25   13   33 1
    26   14   15 1
    27   16   17 2
    28   16   18 1
    29   19   24 ar
    30   19   20 ar
    31   20   21 ar
    32   20   34 1
    33   21   22 ar
    34   21   35 1
    35   22   23 ar
    36   22   25 1
    37   23   24 ar
    38   23   36 1
    39   24   37 1
    40   25   38 1
    41   25   39 1
@<TRIPOS>MOLECULE
ZINC05371512
   57    60     0     0     0
SMALL
USER_CHARGES
6,8,10,11-tetrahydroxy-8-(2-isopropoxyacetyl)-1-methoxy-9,10-dihydro-7H-tetracene-5,12-dione
@<TRIPOS>ATOM
      1 C1         -0.3322   -1.0893   -6.1813 C.3       1 <0>        -0.1778
      2 C2          0.7124   -1.2631   -5.0770 C.3       1 <0>         0.0789
      3 C3          2.0733   -1.5684   -5.7059 C.3       1 <0>        -0.1512
      4 O1          0.8006   -0.0600   -4.3111 O.3       1 <0>        -0.3640
      5 C4         -0.0893   -0.0155   -3.1939 C.3       1 <0>         0.0171
      6 C5          0.0879    1.2899   -2.4622 C.2       1 <0>         0.3357
      7 O2          0.8931    2.0988   -2.8567 O.2       1 <0>        -0.4091
      8 C6         -0.7398    1.5860   -1.2381 C.3       1 <0>         0.1023
      9 C7         -0.0127    1.0858    0.0080 C.3       1 <0>        -0.1003
     10 C8         -0.7067    1.5662    1.2567 C.ar      1 <0>        -0.0482
     11 C9         -1.6001    2.6070    1.2516 C.ar      1 <0>        -0.1001
     12 C10        -2.2098    3.0153    2.4452 C.ar      1 <0>         0.1592
     13 C11        -1.9188    2.3709    3.6456 C.ar      1 <0>        -0.1318
     14 C12        -1.0031    1.2995    3.6512 C.ar      1 <0>        -0.1347
     15 C13        -0.4043    0.9061    2.4557 C.ar      1 <0>         0.1553
     16 O3          0.4780   -0.1239    2.4526 O.3       1 <0>        -0.4699
     17 C14        -0.6852    0.6076    4.9121 C.2       1 <0>         0.4370
     18 O4          0.1040   -0.3173    4.9173 O.2       1 <0>        -0.4085
     19 C15        -1.3286    1.0392    6.1706 C.ar      1 <0>        -0.0819
     20 C16        -1.0354    0.3917    7.3664 C.ar      1 <0>        -0.1060
     21 C17        -1.6420    0.7996    8.5431 C.ar      1 <0>        -0.0557
     22 C18        -2.5398    1.8478    8.5428 C.ar      1 <0>        -0.1908
     23 C19        -2.8476    2.5098    7.3583 C.ar      1 <0>         0.1789
     24 C20        -2.2427    2.1090    6.1630 C.ar      1 <0>        -0.1599
     25 C21        -2.5599    2.8011    4.9007 C.2       1 <0>         0.4316
     26 O5         -3.3495    3.7262    4.8953 O.2       1 <0>        -0.3959
     27 O6         -3.7300    3.5394    7.3631 O.3       1 <0>        -0.2833
     28 C22        -4.3080    3.8926    8.6213 C.3       1 <0>         0.0189
     29 O7         -3.0904    4.0467    2.4319 O.3       1 <0>        -0.4703
     30 C23        -1.9707    3.3518   -0.0052 C.3       1 <0>         0.1580
     31 H1         -2.0135    4.4196    0.2095 H         1 <0>         0.0838
     32 C24        -0.9405    3.1002   -1.1039 C.3       1 <0>        -0.0947
     33 O8         -3.2540    2.9105   -0.4530 O.3       1 <0>        -0.5261
     34 O9         -2.0092    0.9389   -1.3472 O.3       1 <0>        -0.5111
     35 H2         -1.3018   -0.8718   -5.7333 H         1 <0>         0.0568
     36 H3         -0.0395   -0.2651   -6.8319 H         1 <0>         0.0663
     37 H4         -0.3996   -2.0070   -6.7655 H         1 <0>         0.0687
     38 H5          0.4197   -2.0873   -4.4265 H         1 <0>         0.0622
     39 H6          2.8175   -1.6922   -4.9192 H         1 <0>         0.0624
     40 H7          2.0060   -2.4861   -6.2901 H         1 <0>         0.0726
     41 H8          2.3660   -0.7442   -6.3564 H         1 <0>         0.0661
     42 H9          0.1140   -0.7745   -2.5754 H         1 <0>         0.0749
     43 H10        -1.1178   -0.0985   -3.5451 H         1 <0>         0.0900
     44 H11         0.0021   -0.0041    0.0020 H         1 <0>         0.0949
     45 H12         1.0114    1.4589    0.0002 H         1 <0>         0.1055
     46 H13         0.0718   -0.9892    2.3065 H         1 <0>         0.3973
     47 H14        -0.3343   -0.4297    7.3774 H         1 <0>         0.1461
     48 H15        -1.4101    0.2934    9.4685 H         1 <0>         0.1425
     49 H16        -3.0058    2.1561    9.4671 H         1 <0>         0.1438
     50 H17        -4.8525    3.0383    9.0236 H         1 <0>         0.0600
     51 H18        -3.5186    4.1801    9.3158 H         1 <0>         0.0601
     52 H19        -4.9937    4.7287    8.4843 H         1 <0>         0.1079
     53 H20        -4.0077    3.7788    2.2839 H         1 <0>         0.3975
     54 H21         0.0043    3.5739   -0.8370 H         1 <0>         0.1054
     55 H22        -1.3028    3.5079   -2.0476 H         1 <0>         0.0950
     56 H23        -3.9616    3.0384    0.1936 H         1 <0>         0.3681
     57 H24        -1.9551   -0.0239   -1.4181 H         1 <0>         0.3704
@<TRIPOS>BOND
     1    1    2 1
     2    1   35 1
     3    1   36 1
     4    1   37 1
     5    2    3 1
     6    2    4 1
     7    2   38 1
     8    3   39 1
     9    3   40 1
    10    3   41 1
    11    4    5 1
    12    5    6 1
    13    5   42 1
    14    5   43 1
    15    6    7 2
    16    6    8 1
    17    8   32 1
    18    8    9 1
    19    8   34 1
    20    9   10 1
    21    9   44 1
    22    9   45 1
    23   10   15 ar
    24   10   11 ar
    25   11   12 ar
    26   11   30 1
    27   12   13 ar
    28   12   29 1
    29   13   25 1
    30   13   14 ar
    31   14   15 ar
    32   14   17 1
    33   15   16 1
    34   16   46 1
    35   17   18 2
    36   17   19 1
    37   19   24 ar
    38   19   20 ar
    39   20   21 ar
    40   20   47 1
    41   21   22 ar
    42   21   48 1
    43   22   23 ar
    44   22   49 1
    45   23   24 ar
    46   23   27 1
    47   24   25 1
    48   25   26 2
    49   27   28 1
    50   28   50 1
    51   28   51 1
    52   28   52 1
    53   29   53 1
    54   30   31 1
    55   30   32 1
    56   30   33 1
    57   32   54 1
    58   32   55 1
    59   33   56 1
    60   34   57 1
@<TRIPOS>MOLECULE
ZINC14849421
   67    70     0     0     0
SMALL
USER_CHARGES
N-(6-amino-1-butyl-2,4-dioxo-pyrimidin-5-yl)-N-benzyl-3-[(3S)-2-oxo-3,4-dihydro-1H-quinolin-3-yl]propanamide
@<TRIPOS>ATOM
      1 C1          8.1119   13.2961    2.9591 C.3       1 <0>        -0.1541
      2 C2          8.0217   13.2894    1.4318 C.3       1 <0>        -0.1196
      3 C3          8.1656   11.8552    0.9187 C.3       1 <0>        -0.1410
      4 C4          8.0753   11.8485   -0.6086 C.3       1 <0>         0.1059
      5 N1          8.2132   10.4752   -1.0999 N.am      1 <0>        -0.5382
      6 C5          7.0947    9.6904   -1.2586 C.2       1 <0>         0.4776
      7 C6          7.2384    8.3985   -1.7217 C.2       1 <0>        -0.1386
      8 C7          8.5300    7.9210   -2.0131 C.2       1 <0>         0.5666
      9 O1          8.6861    6.7819   -2.4193 O.2       1 <0>        -0.5024
     10 N2          9.5923    8.7327   -1.8451 N.am      1 <0>        -0.6645
     11 H1         10.5096    8.3970   -2.0593 H         1 <0>         0.4384
     12 C8          9.4330    9.9891   -1.3927 C.2       1 <0>         0.7118
     13 O2         10.4094   10.6989   -1.2460 O.2       1 <0>        -0.5347
     14 N3          6.1106    7.5685   -1.8946 N.am      1 <0>        -0.5260
     15 C9          5.1071    7.8984   -2.9097 C.3       1 <0>         0.1425
     16 C10         5.4847    7.2526   -4.2179 C.ar      1 <0>        -0.1052
     17 C11         6.3629    7.8892   -5.0748 C.ar      1 <0>        -0.0937
     18 C12         6.7130    7.2946   -6.2726 C.ar      1 <0>        -0.1175
     19 C13         6.1767    6.0683   -6.6183 C.ar      1 <0>        -0.1127
     20 C14         5.2944    5.4341   -5.7637 C.ar      1 <0>        -0.1180
     21 C15         4.9484    6.0263   -4.5635 C.ar      1 <0>        -0.1089
     22 C16         5.9563    6.4709   -1.1251 C.2       1 <0>         0.5198
     23 O3          6.8315    6.1452   -0.3505 O.2       1 <0>        -0.5039
     24 C17         4.6969    5.6496   -1.2277 C.3       1 <0>        -0.1427
     25 C18         4.7075    4.5630   -0.1507 C.3       1 <0>        -0.0898
     26 C19         3.4825    3.6626   -0.3226 C.3       1 <0>        -0.1036
     27 H2          2.5819    4.2765   -0.3390 H         1 <0>         0.1102
     28 C20         3.5976    2.8933   -1.6388 C.3       1 <0>        -0.0755
     29 C21         2.5560    1.8052   -1.6841 C.ar      1 <0>        -0.1246
     30 C22         1.9972    1.4353   -2.8921 C.ar      1 <0>        -0.0820
     31 C23         1.0554    0.4243   -2.9395 C.ar      1 <0>        -0.1408
     32 C24         0.6731   -0.2229   -1.7785 C.ar      1 <0>        -0.0878
     33 C25         1.2256    0.1451   -0.5677 C.ar      1 <0>        -0.1535
     34 C26         2.1644    1.1670   -0.5150 C.ar      1 <0>         0.1613
     35 N4          2.7222    1.5436    0.7099 N.am      1 <0>        -0.6647
     36 C27         3.4074    2.6939    0.8281 C.2       1 <0>         0.5236
     37 O4          3.9698    2.9542    1.8707 O.2       1 <0>        -0.5136
     38 N5          5.8487   10.1872   -0.9599 N.pl3     1 <0>        -0.8333
     39 H3          7.3135   12.6803    3.3730 H         1 <0>         0.0546
     40 H4          9.0773   12.8950    3.2678 H         1 <0>         0.0565
     41 H5          8.0094   14.3179    3.3246 H         1 <0>         0.0585
     42 H6          8.8201   13.9052    1.0179 H         1 <0>         0.0691
     43 H7          7.0563   13.6905    1.1231 H         1 <0>         0.0648
     44 H8          7.3672   11.2394    1.3326 H         1 <0>         0.0691
     45 H9          9.1310   11.4541    1.2274 H         1 <0>         0.0777
     46 H10         8.8738   12.4643   -1.0225 H         1 <0>         0.1125
     47 H11         7.1100   12.2496   -0.9173 H         1 <0>         0.0907
     48 H12         4.1324    7.5295   -2.5903 H         1 <0>         0.0956
     49 H13         5.0620    8.9799   -3.0380 H         1 <0>         0.0864
     50 H14         6.7784    8.8494   -4.8068 H         1 <0>         0.1139
     51 H15         7.4021    7.7902   -6.9405 H         1 <0>         0.1206
     52 H16         6.4468    5.6058   -7.5561 H         1 <0>         0.1216
     53 H17         4.8752    4.4762   -6.0339 H         1 <0>         0.1230
     54 H18         4.2588    5.5310   -3.8960 H         1 <0>         0.1210
     55 H19         4.6455    5.1848   -2.2123 H         1 <0>         0.1005
     56 H20         3.8299    6.2946   -1.0847 H         1 <0>         0.0952
     57 H21         4.6812    5.0280    0.8348 H         1 <0>         0.0866
     58 H22         5.6140    3.9653   -0.2464 H         1 <0>         0.0816
     59 H23         4.5900    2.4487   -1.7134 H         1 <0>         0.0870
     60 H24         3.4432    3.5779   -2.4729 H         1 <0>         0.0912
     61 H25         2.2968    1.9363   -3.8008 H         1 <0>         0.1295
     62 H26         0.6171    0.1397   -3.8846 H         1 <0>         0.1265
     63 H27        -0.0582   -1.0165   -1.8189 H         1 <0>         0.1285
     64 H28         0.9243   -0.3588    0.3388 H         1 <0>         0.1280
     65 H29         2.6136    0.9685    1.4834 H         1 <0>         0.4113
     66 H30         5.0724    9.6070   -1.0012 H         1 <0>         0.4234
     67 H31         5.7454   11.1182   -0.7077 H         1 <0>         0.4082
@<TRIPOS>BOND
     1    1    2 1
     2    1   39 1
     3    1   40 1
     4    1   41 1
     5    2    3 1
     6    2   42 1
     7    2   43 1
     8    3    4 1
     9    3   44 1
    10    3   45 1
    11    4    5 1
    12    4   46 1
    13    4   47 1
    14    5   12 am
    15    5    6 1
    16    6    7 2
    17    6   38 1
    18    7    8 1
    19    7   14 1
    20    8    9 2
    21    8   10 am
    22   10   11 1
    23   10   12 am
    24   12   13 2
    25   14   15 1
    26   14   22 am
    27   15   16 1
    28   15   48 1
    29   15   49 1
    30   16   21 ar
    31   16   17 ar
    32   17   18 ar
    33   17   50 1
    34   18   19 ar
    35   18   51 1
    36   19   20 ar
    37   19   52 1
    38   20   21 ar
    39   20   53 1
    40   21   54 1
    41   22   23 2
    42   22   24 1
    43   24   25 1
    44   24   55 1
    45   24   56 1
    46   25   26 1
    47   25   57 1
    48   25   58 1
    49   26   27 1
    50   26   36 1
    51   26   28 1
    52   28   29 1
    53   28   59 1
    54   28   60 1
    55   29   34 ar
    56   29   30 ar
    57   30   31 ar
    58   30   61 1
    59   31   32 ar
    60   31   62 1
    61   32   33 ar
    62   32   63 1
    63   33   34 ar
    64   33   64 1
    65   34   35 1
    66   35   36 am
    67   35   65 1
    68   36   37 2
    69   38   66 1
    70   38   67 1
@<TRIPOS>MOLECULE
ZINC20920564
   52    54     0     0     0
SMALL
USER_CHARGES
2-[[4-amino-5-[(N'E)-N'-[(1-isopropylpyrazol-4-yl)methylene]hydrazino]-1,2,4-triazol-3-yl]sulfanyl]-N-(2-bromo-4-methyl-phenyl)acetamide
@<TRIPOS>ATOM
      1 C1         13.5267    4.9252    0.3230 C.3       1 <0>        -0.1170
      2 C2         12.0230    4.9171    0.2250 C.ar      1 <0>        -0.0931
      3 C3         11.3821    3.9064   -0.4682 C.ar      1 <0>        -0.0854
      4 C4         10.0042    3.8959   -0.5605 C.ar      1 <0>        -0.1125
      5 C5          9.2615    4.9015    0.0440 C.ar      1 <0>         0.1724
      6 C6          9.9081    5.9185    0.7352 C.ar      1 <0>        -0.1149
      7 C7         11.2871    5.9203    0.8278 C.ar      1 <0>        -0.0742
      8 Br1         8.9024    7.2949    1.5539 Br        1 <0>        -0.0415
      9 N1          7.8649    4.8937   -0.0477 N.am      1 <0>        -0.6780
     10 C8          7.1965    3.7234   -0.0538 C.2       1 <0>         0.5429
     11 O1          7.8079    2.6759   -0.0622 O.2       1 <0>        -0.5054
     12 C9          5.6895    3.7162   -0.0503 C.3       1 <0>        -0.1459
     13 S1          5.0929    2.0032   -0.0602 S.3       1 <0>         0.0740
     14 C10         3.3382    2.1629   -0.0551 C.2       1 <0>         0.1712
     15 N2          2.6667    3.2894   -0.0468 N.2       1 <0>        -0.3045
     16 N3          1.3005    2.9792   -0.0519 N.2       1 <0>        -0.3145
     17 C11         1.1816    1.6735   -0.0540 C.2       1 <0>         0.4920
     18 N4          2.4383    1.1349   -0.0597 N.pl3     1 <0>        -0.2640
     19 N5          2.7409   -0.1971   -0.0681 N.3       1 <0>        -0.7782
     20 N6         -0.0100    0.9633   -0.0562 N.pl3     1 <0>        -0.5641
     21 N7         -1.2329    1.6468   -0.0555 N.2       1 <0>        -0.2085
     22 C12        -2.3476    0.9824   -0.0629 C.2       1 <0>         0.1423
     23 C13        -3.6362    1.7026   -0.0622 C.2       1 <0>        -0.2065
     24 C14        -3.8120    3.1030   -0.0478 C.2       1 <0>         0.0897
     25 N8         -5.0939    3.3517   -0.0562 N.2       1 <0>        -0.2977
     26 N9         -5.7899    2.1375   -0.0658 N.pl3     1 <0>        -0.3579
     27 C15        -4.8906    1.1326   -0.0694 C.2       1 <0>         0.0913
     28 C16        -7.2469    1.9843   -0.0710 C.3       1 <0>         0.1516
     29 C17        -7.7367    1.8149   -1.5105 C.3       1 <0>        -0.1676
     30 C18        -7.6329    0.7507    0.7476 C.3       1 <0>        -0.1682
     31 H1         13.9338    4.0556   -0.2137 H         1 <0>         0.0696
     32 H2         13.8255    4.8762    1.3805 H         1 <0>         0.0730
     33 H3         13.9184    5.8497   -0.1262 H         1 <0>         0.0731
     34 H4         11.9601    3.1244   -0.9383 H         1 <0>         0.1336
     35 H5          9.5047    3.1066   -1.1026 H         1 <0>         0.1490
     36 H6         11.7905    6.7086    1.3678 H         1 <0>         0.1368
     37 H7          7.3128    5.8428   -0.1148 H         1 <0>         0.4418
     38 H8          5.3225    4.2271    0.8521 H         1 <0>         0.1345
     39 H9          5.3182    4.2389   -0.9441 H         1 <0>         0.1340
     40 H10         1.9338   -0.9445   -0.0712 H         1 <0>         0.4365
     41 H11         3.7917   -0.5224   -0.0718 H         1 <0>         0.4485
     42 H12         0.0053   -0.1366   -0.0585 H         1 <0>         0.4054
     43 H13        -2.3323   -0.1175   -0.0697 H         1 <0>         0.1198
     44 H14        -3.0233    3.8407   -0.0350 H         1 <0>         0.1919
     45 H15        -5.1127    0.0757   -0.0772 H         1 <0>         0.1800
     46 H16        -7.6704    2.8950    0.3776 H         1 <0>         0.1076
     47 H17        -8.8307    1.6999   -1.5144 H         1 <0>         0.0811
     48 H18        -7.2724    0.9212   -1.9530 H         1 <0>         0.0643
     49 H19        -7.4591    2.7018   -2.0990 H         1 <0>         0.0678
     50 H20        -8.7269    0.6357    0.7437 H         1 <0>         0.0866
     51 H21        -7.2807    0.8725    1.7825 H         1 <0>         0.0691
     52 H22        -7.1686   -0.1430    0.3051 H         1 <0>         0.0682
@<TRIPOS>BOND
     1    1    2 1
     2    1   31 1
     3    1   32 1
     4    1   33 1
     5    2    7 ar
     6    2    3 ar
     7    3    4 ar
     8    3   34 1
     9    4    5 ar
    10    4   35 1
    11    5    6 ar
    12    5    9 1
    13    6    7 ar
    14    6    8 1
    15    7   36 1
    16    9   10 am
    17    9   37 1
    18   10   11 2
    19   10   12 1
    20   12   13 1
    21   12   38 1
    22   12   39 1
    23   13   14 1
    24   14   18 1
    25   14   15 2
    26   15   16 1
    27   16   17 2
    28   17   18 1
    29   17   20 1
    30   18   19 1
    31   19   40 1
    32   19   41 1
    33   20   21 1
    34   20   42 1
    35   21   22 2
    36   22   23 1
    37   22   43 1
    38   23   27 2
    39   23   24 1
    40   24   25 2
    41   24   44 1
    42   25   26 1
    43   26   27 1
    44   26   28 1
    45   27   45 1
    46   28   29 1
    47   28   30 1
    48   28   46 1
    49   29   47 1
    50   29   48 1
    51   29   49 1
    52   30   50 1
    53   30   51 1
    54   30   52 1
@<TRIPOS>MOLECULE
ZINC39362275
   55    58     0     0     0
SMALL
USER_CHARGES

@<TRIPOS>ATOM
      1 C1          0.2955    0.8395    1.0762 C.3       1 <0>         0.0248
      2 O1         -0.0000   -0.0060   -0.0373 O.3       1 <0>        -0.3147
      3 C2         -1.2036   -0.6389   -0.0296 C.ar      1 <0>         0.1297
      4 C3         -2.0824   -0.4441    1.0259 C.ar      1 <0>        -0.1875
      5 C4         -3.3049   -1.0864    1.0346 C.ar      1 <0>        -0.0800
      6 C5         -3.6543   -1.9276   -0.0138 C.ar      1 <0>         0.1245
      7 C6         -2.7738   -2.1220   -1.0702 C.ar      1 <0>        -0.0829
      8 C7         -1.5542   -1.4744   -1.0799 C.ar      1 <0>        -0.1326
      9 N1         -4.8930   -2.5794   -0.0056 N.pl3     1 <0>        -0.5710
     10 C8         -5.1253   -4.0298   -0.1109 C.3       1 <0>         0.3772
     11 H1         -4.7479   -4.4097   -1.0603 H         1 <0>         0.0857
     12 N2         -6.5915   -4.1590   -0.0487 N.pl3     1 <0>        -0.6627
     13 N3         -7.0924   -2.8579    0.0809 N.2       1 <0>        -0.2987
     14 C9         -6.1418   -1.9860    0.1093 C.2       1 <0>         0.2619
     15 S1         -6.3988   -0.2502    0.2698 S.3       1 <0>         0.0784
     16 C10        -8.2017   -0.0817    0.3774 C.3       1 <0>        -0.1527
     17 C11        -8.5625    1.3746    0.5195 C.2       1 <0>         0.5353
     18 O2         -7.6893    2.2159    0.5456 O.2       1 <0>        -0.4997
     19 N4         -9.8555    1.7420    0.6176 N.am      1 <0>        -0.6673
     20 C12       -10.1979    3.0986    0.6347 C.ar      1 <0>         0.1415
     21 C13       -11.2664    3.5369    1.4059 C.ar      1 <0>        -0.1421
     22 C14       -11.6019    4.8766    1.4206 C.ar      1 <0>        -0.1009
     23 C15       -10.8751    5.7812    0.6685 C.ar      1 <0>        -0.1311
     24 C16        -9.8109    5.3479   -0.1009 C.ar      1 <0>        -0.1002
     25 C17        -9.4665    4.0105   -0.1151 C.ar      1 <0>        -0.1185
     26 C18        -4.4684   -4.7651    1.0590 C.3       1 <0>        -0.1223
     27 C19        -4.6148   -6.2521    0.8636 C.2       1 <0>         0.2041
     28 N5         -5.7556   -6.8898    1.2689 N.am      1 <0>        -0.6362
     29 C20        -5.8963   -8.2169    1.0986 C.2       1 <0>         0.7012
     30 O3         -6.9184   -8.7633    1.4661 O.2       1 <0>        -0.5354
     31 N6         -4.9218   -8.9482    0.5267 N.am      1 <0>        -0.6587
     32 C21        -3.7823   -8.3574    0.1137 C.2       1 <0>         0.5505
     33 O4         -2.9000   -9.0183   -0.4039 O.2       1 <0>        -0.5078
     34 C22        -3.6231   -6.9608    0.2826 C.2       1 <0>        -0.2833
     35 H2          1.2832    1.2815    0.9447 H         1 <0>         0.1025
     36 H3         -0.4512    1.6310    1.1397 H         1 <0>         0.0585
     37 H4          0.2800    0.2509    1.9935 H         1 <0>         0.0573
     38 H5         -1.8103    0.2097    1.8412 H         1 <0>         0.1358
     39 H6         -3.9888   -0.9349    1.8566 H         1 <0>         0.1323
     40 H7         -3.0446   -2.7762   -1.8857 H         1 <0>         0.1335
     41 H8         -0.8713   -1.6217   -1.9036 H         1 <0>         0.1387
     42 H9         -7.1062   -4.9801   -0.0896 H         1 <0>         0.4432
     43 H10        -8.6588   -0.4826   -0.5273 H         1 <0>         0.1285
     44 H11        -8.5671   -0.6327    1.2440 H         1 <0>         0.1272
     45 H12       -10.5487    1.0661    0.6764 H         1 <0>         0.4145
     46 H13       -11.8347    2.8309    1.9933 H         1 <0>         0.1263
     47 H14       -12.4330    5.2180    2.0199 H         1 <0>         0.1277
     48 H15       -11.1395    6.8282    0.6817 H         1 <0>         0.1250
     49 H16        -9.2455    6.0568   -0.6875 H         1 <0>         0.1274
     50 H17        -8.6320    3.6734   -0.7121 H         1 <0>         0.1334
     51 H18        -3.4104   -4.5067    1.1025 H         1 <0>         0.1183
     52 H19        -4.9526   -4.4716    1.9904 H         1 <0>         0.1000
     53 H20        -5.0395   -9.9041    0.4114 H         1 <0>         0.4333
     54 H21        -2.7192   -6.4694   -0.0456 H         1 <0>         0.1736
     55 H22        -6.4695   -6.3802    1.6833 H         1 <0>         0.4345
@<TRIPOS>BOND
     1    1    2 1
     2    1   35 1
     3    1   36 1
     4    1   37 1
     5    2    3 1
     6    3    8 ar
     7    3    4 ar
     8    4    5 ar
     9    4   38 1
    10    5    6 ar
    11    5   39 1
    12    6    7 ar
    13    6    9 1
    14    7    8 ar
    15    7   40 1
    16    8   41 1
    17    9   14 1
    18    9   10 1
    19   10   11 1
    20   10   12 1
    21   10   26 1
    22   12   13 1
    23   12   42 1
    24   13   14 2
    25   14   15 1
    26   15   16 1
    27   16   17 1
    28   16   43 1
    29   16   44 1
    30   17   18 2
    31   17   19 am
    32   19   20 1
    33   19   45 1
    34   20   25 ar
    35   20   21 ar
    36   21   22 ar
    37   21   46 1
    38   22   23 ar
    39   22   47 1
    40   23   24 ar
    41   23   48 1
    42   24   25 ar
    43   24   49 1
    44   25   50 1
    45   26   51 1
    46   26   52 1
    47   26   27 1
    48   27   34 2
    49   27   28 1
    50   28   29 am
    51   28   55 1
    52   29   30 2
    53   29   31 am
    54   31   53 1
    55   31   32 am
    56   32   33 2
    57   32   34 1
    58   34   54 1
@<TRIPOS>MOLECULE
ZINC33726327
   30    31     0     0     0
SMALL
USER_CHARGES

@<TRIPOS>ATOM
      1 C1          0.1944    1.3530    0.7791 C.ar      1 <0>         0.0044
      2 C2          1.1648    2.0823    0.1149 C.ar      1 <0>        -0.1083
      3 C3          2.1526    1.4319   -0.6027 C.ar      1 <0>         0.0084
      4 C4          2.1726    0.0511   -0.6579 C.ar      1 <0>        -0.1076
      5 C5          1.1996   -0.6832    0.0086 C.ar      1 <0>         0.2597
      6 C6          0.2096   -0.0270    0.7279 C.ar      1 <0>        -0.0650
      7 N1         -0.8287   -0.8060    1.4393 N.pl3     1 <0>         0.0414
      8 O1         -1.7486   -0.2362    1.9786 O.2       1 <0>        -0.1352
      9 O2         -0.7570   -2.0122    1.4811 O.3       1 <0>        -0.1572
     10 N2          1.2167   -2.0820   -0.0457 N.am      1 <0>        -0.6623
     11 C7          2.3748   -2.7490    0.1286 C.2       1 <0>         0.5219
     12 O3          3.3907   -2.1415    0.3931 O.2       1 <0>        -0.4643
     13 C8          2.4075   -4.2497   -0.0052 C.3       1 <0>        -0.1551
     14 S1          4.0961   -4.8459    0.2841 S.3       1 <0>         0.1125
     15 C9          3.9695   -6.5931    0.0947 C.2       1 <0>         0.2207
     16 N3          2.8730   -7.2507   -0.1968 N.2       1 <0>        -0.3292
     17 H1          2.6187   -9.3520   -0.4475 H         1 <0>         0.4388
     18 N4          3.2143   -8.6116   -0.2529 N.pl3     1 <0>        -0.5097
     19 C10         4.5343   -8.6862    0.0168 C.2       1 <0>         0.5476
     20 N5          4.9778   -7.4638    0.2192 N.2       1 <0>        -0.5572
     21 N6          5.2896   -9.8437    0.0667 N.pl3     1 <0>        -0.8219
     22 Br1         3.5223   -0.8376   -1.6399 Br        1 <0>         0.0383
     23 Br2         1.1403    3.9718    0.1876 Br        1 <0>         0.0041
     24 H2         -0.5731    1.8635    1.3419 H         1 <0>         0.1745
     25 H3          2.9086    2.0036   -1.1205 H         1 <0>         0.1672
     26 H4          0.3951   -2.5711   -0.2087 H         1 <0>         0.4307
     27 H5          1.7345   -4.6946    0.7278 H         1 <0>         0.1328
     28 H6          2.0894   -4.5320   -1.0088 H         1 <0>         0.1279
     29 H7          4.8720  -10.7029   -0.1014 H         1 <0>         0.4148
     30 H8          6.2369   -9.7962    0.2697 H         1 <0>         0.4274
@<TRIPOS>BOND
     1    1    6 ar
     2    1    2 ar
     3    1   24 1
     4    2    3 ar
     5    2   23 1
     6    3    4 ar
     7    3   25 1
     8    4    5 ar
     9    4   22 1
    10    5    6 ar
    11    5   10 1
    12    6    7 1
    13    7    8 2
    14    7    9 1
    15   10   11 am
    16   10   26 1
    17   11   12 2
    18   11   13 1
    19   13   14 1
    20   13   27 1
    21   13   28 1
    22   14   15 1
    23   15   20 1
    24   15   16 2
    25   16   18 1
    26   17   18 1
    27   18   19 1
    28   19   21 1
    29   19   20 2
    30   21   29 1
    31   21   30 1
@<TRIPOS>MOLECULE
ZINC04270187
   40    41     0     0     0
SMALL
USER_CHARGES
2-(1,3,4-trimethyl-2,6-dioxo-pyrimidin-5-yl)sulfonylaminobenzamide
@<TRIPOS>ATOM
      1 C1          5.5377    1.0901    2.4263 C.3       1 <0>        -0.1627
      2 C2          4.3352    1.6611    3.1328 C.2       1 <0>         0.3561
      3 C3          3.3578    2.2677    2.4258 C.2       1 <0>        -0.8642
      4 C4          2.2406    2.8011    3.1125 C.2       1 <0>         0.5874
      5 O1          1.3490    3.3572    2.4969 O.2       1 <0>        -0.4810
      6 N1          2.1700    2.6824    4.4538 N.am      1 <0>        -0.5540
      7 C5          3.1589    2.0731    5.1338 C.2       1 <0>         0.6978
      8 O2          3.0843    1.9784    6.3437 O.2       1 <0>        -0.5260
      9 N2          4.2285    1.5669    4.4937 N.am      1 <0>        -0.5265
     10 C6          5.2891    0.9092    5.2609 C.3       1 <0>         0.0598
     11 C7          1.0156    3.2248    5.1744 C.3       1 <0>         0.0780
     12 S1          3.4748    2.4001    0.6726 S.o2      1 <0>         2.7227
     13 O3          4.8289    2.1332    0.3346 O.2       1 <0>        -0.9537
     14 O4          2.8241    3.6109    0.3125 O.2       1 <0>        -0.9263
     15 N3          2.5745    1.1689    0.0276 N.pl3     1 <0>        -1.0449
     16 C8          1.1999    1.1377    0.2230 C.ar      1 <0>         0.1970
     17 C9          0.3897    2.1061   -0.3573 C.ar      1 <0>        -0.1039
     18 C10        -0.9755    2.0726   -0.1620 C.ar      1 <0>        -0.0729
     19 C11        -1.5496    1.0764    0.6120 C.ar      1 <0>        -0.1201
     20 C12        -0.7634    0.1048    1.1911 C.ar      1 <0>        -0.0824
     21 C13         0.6216    0.1277    1.0073 C.ar      1 <0>        -0.1511
     22 C14         1.4695   -0.9062    1.6284 C.2       1 <0>         0.5666
     23 O5          2.6739   -0.8855    1.4618 O.2       1 <0>        -0.5387
     24 N4          0.9098   -1.8742    2.3808 N.am      1 <0>        -0.8507
     25 H1          6.1078    1.8983    1.9683 H         1 <0>         0.1357
     26 H2          6.1659    0.5644    3.1455 H         1 <0>         0.0921
     27 H3          5.2090    0.3944    1.6542 H         1 <0>         0.1243
     28 H4          6.0799    1.6275    5.4773 H         1 <0>         0.0877
     29 H5          4.8784    0.5284    6.1960 H         1 <0>         0.1058
     30 H6          5.6982    0.0824    4.6803 H         1 <0>         0.1004
     31 H7          1.1349    3.0414    6.2422 H         1 <0>         0.1004
     32 H8          0.9470    4.2979    4.9955 H         1 <0>         0.0839
     33 H9          0.1059    2.7388    4.8217 H         1 <0>         0.0817
     34 H10         3.0072    0.4696   -0.4868 H         1 <0>         0.4309
     35 H11         0.8292    2.8855   -0.9621 H         1 <0>         0.1461
     36 H12        -1.6011    2.8273   -0.6155 H         1 <0>         0.1362
     37 H13        -2.6195    1.0592    0.7582 H         1 <0>         0.1333
     38 H14        -1.2165   -0.6717    1.7895 H         1 <0>         0.1280
     39 H15        -0.0509   -1.8907    2.5136 H         1 <0>         0.4016
     40 H16         1.4677   -2.5544    2.7894 H         1 <0>         0.4056
@<TRIPOS>BOND
     1    1    2 1
     2    1   25 1
     3    1   26 1
     4    1   27 1
     5    2    9 1
     6    2    3 2
     7    3    4 1
     8    3   12 1
     9    4    5 2
    10    4    6 am
    11    6    7 am
    12    6   11 1
    13    7    8 2
    14    7    9 am
    15    9   10 1
    16   10   28 1
    17   10   29 1
    18   10   30 1
    19   11   31 1
    20   11   32 1
    21   11   33 1
    22   12   13 2
    23   12   14 2
    24   12   15 1
    25   15   16 1
    26   15   34 1
    27   16   21 ar
    28   16   17 ar
    29   17   18 ar
    30   17   35 1
    31   18   19 ar
    32   18   36 1
    33   19   20 ar
    34   19   37 1
    35   20   21 ar
    36   20   38 1
    37   21   22 1
    38   22   23 2
    39   22   24 am
    40   24   39 1
    41   24   40 1
@<TRIPOS>MOLECULE
ZINC31808252
   49    50     0     0     0
SMALL
USER_CHARGES
(3S)-N-isobutyl-1-[(6-methyl-2,4-dioxo-1H-pyrimidin-5-yl)sulfonyl]piperidine-3-carboxamide
@<TRIPOS>ATOM
      1 C1          1.1192    3.5607    0.0105 C.3       1 <0>        -0.2808
      2 C2          1.1518    2.0541    0.0021 C.2       1 <0>         0.3630
      3 C3          2.3336    1.4013   -0.0131 C.2       1 <0>        -0.8752
      4 C4          2.3384   -0.0144   -0.0212 C.2       1 <0>         0.5955
      5 O1          3.3918   -0.6253   -0.0349 O.2       1 <0>        -0.4967
      6 N1          1.1659   -0.6801   -0.0131 N.am      1 <0>        -0.6706
      7 H1          1.1579   -1.7801   -0.0188 H         1 <0>         0.4656
      8 C5          0.0021   -0.0041    0.0020 C.2       1 <0>         0.7038
      9 O2         -1.0475   -0.6178    0.0087 O.2       1 <0>        -0.5307
     10 N2         -0.0162    1.3412    0.0094 N.am      1 <0>        -0.6471
     11 H2         -0.9819    1.8678    0.0214 H         1 <0>         0.4708
     12 S1          3.8495    2.2993   -0.0227 S.o2      1 <0>         2.7185
     13 O3          4.6901    1.6670   -0.9781 O.2       1 <0>        -0.9240
     14 O4          3.5057    3.6757   -0.1032 O.2       1 <0>        -0.9363
     15 N3          4.5609    2.0749    1.4558 N.pl3     1 <0>        -0.9893
     16 C6          4.2861    2.9966    2.5664 C.3       1 <0>         0.1113
     17 C7          3.8185    2.1760    3.7780 C.3       1 <0>        -0.1333
     18 C8          4.8641    1.1044    4.0952 C.3       1 <0>        -0.1096
     19 C9          5.0071    0.1593    2.9000 C.3       1 <0>        -0.1177
     20 H3          4.0413   -0.3206    2.6833 H         1 <0>         0.0993
     21 C10         5.4838    0.9538    1.6800 C.3       1 <0>         0.1385
     22 C11         6.0132   -0.9145    3.2254 C.2       1 <0>         0.5213
     23 O5          7.0130   -1.0337    2.5493 O.2       1 <0>        -0.5362
     24 N4          5.8019   -1.7424    4.2677 N.am      1 <0>        -0.7396
     25 C12         6.7799   -2.7862    4.5840 C.3       1 <0>         0.1241
     26 C13         6.3033   -3.5793    5.8025 C.3       1 <0>        -0.1063
     27 C14         5.0140   -4.3252    5.4530 C.3       1 <0>        -0.1504
     28 C15         7.3810   -4.5865    6.2089 C.3       1 <0>        -0.1486
     29 H4          2.1481    3.9497    0.0028 H         1 <0>         0.2205
     30 H5          0.6014    3.9112    0.9155 H         1 <0>         0.1039
     31 H6          0.5843    3.9208   -0.8807 H         1 <0>         0.1061
     32 H7          5.2027    3.5497    2.8192 H         1 <0>         0.0840
     33 H8          3.5002    3.7062    2.2682 H         1 <0>         0.0939
     34 H9          3.6966    2.8406    4.6460 H         1 <0>         0.0838
     35 H10         2.8566    1.6954    3.5462 H         1 <0>         0.0666
     36 H11         5.8320    1.5856    4.2993 H         1 <0>         0.0756
     37 H12         4.5458    0.5317    4.9788 H         1 <0>         0.0704
     38 H13         5.4939    0.3041    0.7924 H         1 <0>         0.1127
     39 H14         6.4966    1.3431    1.8609 H         1 <0>         0.0869
     40 H15         4.8951   -1.6343    4.8809 H         1 <0>         0.4171
     41 H16         6.8844   -3.4635    3.7236 H         1 <0>         0.0671
     42 H17         7.7524   -2.3224    4.8058 H         1 <0>         0.0665
     43 H18         6.1128   -2.8891    6.6376 H         1 <0>         0.0763
     44 H19         4.6713   -4.8954    6.3290 H         1 <0>         0.0586
     45 H20         5.2046   -5.0153    4.6179 H         1 <0>         0.0582
     46 H21         4.2392   -3.6011    5.1608 H         1 <0>         0.0536
     47 H22         7.0383   -5.1567    7.0849 H         1 <0>         0.0610
     48 H23         8.3080   -4.0502    6.4601 H         1 <0>         0.0587
     49 H24         7.5715   -5.2767    5.3738 H         1 <0>         0.0591
@<TRIPOS>BOND
     1    1    2 1
     2    1   29 1
     3    1   30 1
     4    1   31 1
     5    2   10 1
     6    2    3 2
     7    3    4 1
     8    3   12 1
     9    4    5 2
    10    4    6 am
    11    6    7 1
    12    6    8 am
    13    8    9 2
    14    8   10 am
    15   10   11 1
    16   12   13 2
    17   12   14 2
    18   12   15 1
    19   15   21 1
    20   15   16 1
    21   16   17 1
    22   16   32 1
    23   16   33 1
    24   17   18 1
    25   17   34 1
    26   17   35 1
    27   18   19 1
    28   18   36 1
    29   18   37 1
    30   19   20 1
    31   19   21 1
    32   19   22 1
    33   21   38 1
    34   21   39 1
    35   22   23 2
    36   22   24 am
    37   24   25 1
    38   24   40 1
    39   25   26 1
    40   25   41 1
    41   25   42 1
    42   26   27 1
    43   26   28 1
    44   26   43 1
    45   27   44 1
    46   27   45 1
    47   27   46 1
    48   28   47 1
    49   28   48 1
    50   28   49 1
@<TRIPOS>MOLECULE
ZINC39450552
   39    41     0     0     0
SMALL
USER_CHARGES

@<TRIPOS>ATOM
      1 C1         -0.0772    1.4367   -0.7399 C.3       1 <0>        -0.1360
      2 C2         -0.0748   -0.0846   -0.5772 C.3       1 <0>        -0.5728
      3 C3          0.9992   -0.4875    0.4352 C.3       1 <0>        -0.1429
      4 S1         -1.6997   -0.6320    0.0149 S.o2      1 <0>         2.5878
      5 O1         -1.8708   -0.2709    1.3786 O.2       1 <0>        -0.9157
      6 O2         -2.6999   -0.3250   -0.9467 O.2       1 <0>        -0.9168
      7 N1         -1.6148   -2.2857    0.0230 N.am      1 <0>        -0.8407
      8 C4         -1.4772   -2.9575   -1.1857 C.2       1 <0>        -0.0688
      9 C5         -1.3961   -4.3377   -1.2263 C.2       1 <0>         0.2890
     10 C6         -1.4654   -5.1094    0.0212 C.ar      1 <0>         0.1570
     11 C7         -1.6073   -4.4026    1.2355 C.ar      1 <0>        -0.1386
     12 C8         -1.6757   -2.9346    1.2002 C.2       1 <0>         0.5545
     13 O3         -1.7914   -2.3058    2.2361 O.2       1 <0>        -0.4450
     14 C9         -1.6750   -5.1119    2.4339 C.ar      1 <0>        -0.0379
     15 C10        -1.5993   -6.4982    2.3751 C.ar      1 <0>         0.0740
     16 C11        -1.4600   -7.1258    1.1386 C.ar      1 <0>         0.1182
     17 N2         -1.3973   -6.4349    0.0217 N.ar      1 <0>        -0.4469
     18 O4         -1.6601   -7.2358    3.5139 O.3       1 <0>        -0.4816
     19 N3         -1.2444   -4.9833   -2.4385 N.pl3     1 <0>        -0.7219
     20 C12        -0.6016   -4.2528   -3.5417 C.3       1 <0>         0.3215
     21 H1         -0.6756   -4.8347   -4.4604 H         1 <0>         0.1119
     22 C13        -1.3274   -2.9142   -3.7176 C.3       1 <0>        -0.1532
     23 C14        -1.4162   -2.2155   -2.3862 C.2       1 <0>         0.3830
     24 O5         -1.4355   -1.0015   -2.3443 O.2       1 <0>        -0.4359
     25 O6          0.7730   -4.0192   -3.2287 O.3       1 <0>        -0.5649
     26 H2          0.8991    1.7657   -1.0957 H         1 <0>         0.0843
     27 H3         -0.8424    1.7238   -1.4612 H         1 <0>         0.0771
     28 H4         -0.2902    1.9046    0.2212 H         1 <0>         0.0683
     29 H5          0.1381   -0.5524   -1.5384 H         1 <0>         0.1513
     30 H6          0.7862   -0.0196    1.3964 H         1 <0>         0.0773
     31 H7          1.0009   -1.5713    0.5511 H         1 <0>         0.0580
     32 H8          1.9756   -0.1586    0.0794 H         1 <0>         0.0815
     33 H9         -1.7826   -4.5998    3.3786 H         1 <0>         0.1676
     34 H10        -1.4014   -8.2034    1.0970 H         1 <0>         0.1796
     35 H11        -2.5568   -7.4942    3.7677 H         1 <0>         0.4032
     36 H12        -1.5542   -5.8946   -2.5590 H         1 <0>         0.4246
     37 H13        -0.7745   -2.2902   -4.4197 H         1 <0>         0.1277
     38 H14        -2.3316   -3.0929   -4.1022 H         1 <0>         0.1321
     39 H15         1.2866   -4.8260   -3.0861 H         1 <0>         0.3901
@<TRIPOS>BOND
     1    1    2 1
     2    1   26 1
     3    1   27 1
     4    1   28 1
     5    2    3 1
     6    2    4 1
     7    2   29 1
     8    3   30 1
     9    3   31 1
    10    3   32 1
    11    4    5 2
    12    4    6 2
    13    4    7 1
    14    7   12 am
    15    7    8 1
    16    8   23 1
    17    8    9 2
    18    9   10 1
    19    9   19 1
    20   10   17 ar
    21   10   11 ar
    22   11   12 1
    23   11   14 ar
    24   12   13 2
    25   14   15 ar
    26   14   33 1
    27   15   16 ar
    28   15   18 1
    29   16   17 ar
    30   16   34 1
    31   18   35 1
    32   19   20 1
    33   19   36 1
    34   20   21 1
    35   20   22 1
    36   20   25 1
    37   22   23 1
    38   22   37 1
    39   22   38 1
    40   23   24 2
    41   25   39 1
@<TRIPOS>MOLECULE
ZINC52529188
   40    41     0     0     0
SMALL
USER_CHARGES

@<TRIPOS>ATOM
      1 C1          0.0470    1.4621    0.0080 C.3       1 <0>         0.0806
      2 N1          0.0402   -0.0028    0.0007 N.am      1 <0>        -0.5627
      3 C2          0.0386   -0.6559   -1.1796 C.2       1 <0>         0.5884
      4 O1          0.0432   -0.0449   -2.2318 O.2       1 <0>        -0.5062
      5 C3          0.0318   -2.1293   -1.1604 C.2       1 <0>        -0.4105
      6 C4          0.0303   -2.8666   -2.3311 C.2       1 <0>         0.3232
      7 N2          0.1505   -4.2087   -2.2827 N.pl3     1 <0>        -0.5994
      8 C5          0.2607   -4.9444   -3.4678 C.ar      1 <0>         0.1497
      9 C6          0.2522   -4.2948   -4.6934 C.ar      1 <0>        -0.1378
     10 C7          0.3607   -5.0236   -5.8628 C.ar      1 <0>        -0.0871
     11 C8          0.4780   -6.4011   -5.8162 C.ar      1 <0>        -0.1112
     12 C9          0.4874   -7.0575   -4.6003 C.ar      1 <0>        -0.1048
     13 C10         0.3853   -6.3338   -3.4203 C.ar      1 <0>        -0.1292
     14 S1          0.4043   -7.1669   -1.8679 S.3       1 <0>        -0.0215
     15 C11         0.5796   -8.9172   -2.3113 C.3       1 <0>        -0.1550
     16 C12         0.6097   -9.7525   -1.0573 C.2       1 <0>         0.5356
     17 O2          0.5216   -9.2195    0.0286 O.2       1 <0>        -0.5164
     18 N3          0.7346  -11.0917   -1.1426 N.am      1 <0>        -0.8471
     19 C13         0.0272   -2.7831    0.1601 C.2       1 <0>         0.5785
     20 O3          0.0218   -3.9960    0.2567 O.2       1 <0>        -0.5141
     21 N4          0.0295   -2.0008    1.2590 N.am      1 <0>        -0.5601
     22 C14         0.0412   -0.6636    1.1669 C.2       1 <0>         0.7094
     23 O4          0.0478   -0.0159    2.1953 O.2       1 <0>        -0.5287
     24 C15         0.0249   -2.6270    2.5834 C.3       1 <0>         0.0786
     25 H1          1.0763    1.8207    0.0063 H         1 <0>         0.0743
     26 H2         -0.4682    1.8323   -0.8783 H         1 <0>         0.0942
     27 H3         -0.4621    1.8233    0.9016 H         1 <0>         0.0940
     28 H4         -0.0672   -2.3671   -3.2837 H         1 <0>         0.1845
     29 H5          0.1606   -4.6642   -1.4264 H         1 <0>         0.4349
     30 H6          0.1605   -3.2194   -4.7339 H         1 <0>         0.1397
     31 H7          0.3535   -4.5160   -6.8160 H         1 <0>         0.1379
     32 H8          0.5621   -6.9654   -6.7332 H         1 <0>         0.1340
     33 H9          0.5788   -8.1331   -4.5679 H         1 <0>         0.1307
     34 H10        -0.2644   -9.2214   -2.9303 H         1 <0>         0.1222
     35 H11         1.5071   -9.0604   -2.8656 H         1 <0>         0.1222
     36 H12         0.8051  -11.5179   -2.0110 H         1 <0>         0.4043
     37 H13         0.7540  -11.6294   -0.3354 H         1 <0>         0.4103
     38 H14         0.0201   -3.7113    2.4726 H         1 <0>         0.1037
     39 H15         0.9157   -2.3219    3.1326 H         1 <0>         0.0804
     40 H16        -0.8643   -2.3137    3.1304 H         1 <0>         0.0803
@<TRIPOS>BOND
     1    1    2 1
     2    1   25 1
     3    1   26 1
     4    1   27 1
     5    2   22 am
     6    2    3 am
     7    3    4 2
     8    3    5 1
     9    5    6 2
    10    5   19 1
    11    6    7 1
    12    6   28 1
    13    7    8 1
    14    7   29 1
    15    8   13 ar
    16    8    9 ar
    17    9   10 ar
    18    9   30 1
    19   10   11 ar
    20   10   31 1
    21   11   12 ar
    22   11   32 1
    23   12   13 ar
    24   12   33 1
    25   13   14 1
    26   14   15 1
    27   15   16 1
    28   15   34 1
    29   15   35 1
    30   16   17 2
    31   16   18 am
    32   18   36 1
    33   18   37 1
    34   19   20 2
    35   19   21 am
    36   21   22 am
    37   21   24 1
    38   22   23 2
    39   24   38 1
    40   24   39 1
    41   24   40 1
@<TRIPOS>MOLECULE
ZINC66448510
   52    55     0     0     0
SMALL
USER_CHARGES

@<TRIPOS>ATOM
      1 C1          1.2135   -0.6816    0.0006 C.ar      1 <0>        -0.1456
      2 C2          2.4018    0.0244   -0.0079 C.ar      1 <0>        -0.0697
      3 C3          2.3873    1.4094   -0.0151 C.ar      1 <0>         0.0072
      4 C4          1.1729    2.0923   -0.0137 C.ar      1 <0>         0.0615
      5 C5         -0.0169    1.3842   -0.0051 C.ar      1 <0>        -0.1359
      6 C6          0.0021   -0.0041    0.0020 C.ar      1 <0>         0.1793
      7 N1         -1.2015   -0.7210    0.0102 N.am      1 <0>        -0.5494
      8 C7         -2.5299   -0.1079    0.1266 C.3       1 <0>         0.1067
      9 C8         -3.5264   -1.1915   -0.3417 C.3       1 <0>        -0.1256
     10 H1         -4.4451   -1.1557    0.2437 H         1 <0>         0.1345
     11 C9         -2.7377   -2.4902   -0.0548 C.3       1 <0>        -0.1415
     12 C10        -1.2884   -2.0584   -0.0933 C.2       1 <0>         0.5183
     13 O1         -0.3422   -2.8099   -0.1995 O.2       1 <0>        -0.5021
     14 C11        -3.8219   -1.0529   -1.8129 C.2       1 <0>         0.5207
     15 O2         -3.2941   -0.1711   -2.4570 O.2       1 <0>        -0.5190
     16 N2         -4.6726   -1.9088   -2.4130 N.am      1 <0>        -0.7235
     17 C12        -4.9599   -1.7740   -3.8432 C.3       1 <0>         0.1493
     18 H2         -4.9628   -0.7187   -4.1159 H         1 <0>         0.1016
     19 C13        -3.8864   -2.5079   -4.6516 C.3       1 <0>        -0.1320
     20 C14        -4.2268   -2.4132   -6.1415 C.3       1 <0>        -0.1121
     21 C15        -5.6171   -3.0061   -6.3808 C.3       1 <0>         0.0479
     22 N3         -6.6082   -2.2695   -5.5862 N.3       1 <0>        -0.5177
     23 C16        -6.3295   -2.3846   -4.1490 C.3       1 <0>         0.0520
     24 C17        -7.9716   -2.7205   -5.8956 C.3       1 <0>         0.0358
     25 C18        -8.3104   -2.3564   -7.3182 C.2       1 <0>         0.5153
     26 O3         -7.4963   -1.7781   -8.0065 O.2       1 <0>        -0.5206
     27 N4         -9.5181   -2.6733   -7.8256 N.am      1 <0>        -0.8581
     28 O4          1.4266    3.4335   -0.0213 O.3       1 <0>        -0.3066
     29 C19         2.8013    3.5674    0.3853 C.3       1 <0>         0.2136
     30 O5          3.4016    2.3242   -0.0236 O.3       1 <0>        -0.3079
     31 H3          1.2277   -1.7615    0.0017 H         1 <0>         0.1685
     32 H4          3.3432   -0.5049   -0.0087 H         1 <0>         0.1416
     33 H5         -0.9593    1.9116   -0.0037 H         1 <0>         0.1398
     34 H6         -2.7295    0.1658    1.1626 H         1 <0>         0.0954
     35 H7         -2.5977    0.7699   -0.5160 H         1 <0>         0.1074
     36 H8         -2.9963   -2.8844    0.9280 H         1 <0>         0.1262
     37 H9         -2.9322   -3.2333   -0.8282 H         1 <0>         0.1122
     38 H10        -5.0947   -2.6140   -1.8978 H         1 <0>         0.4006
     39 H11        -2.9152   -2.0476   -4.4698 H         1 <0>         0.0710
     40 H12        -3.8562   -3.5551   -4.3507 H         1 <0>         0.0615
     41 H13        -4.2186   -1.3680   -6.4509 H         1 <0>         0.0772
     42 H14        -3.4892   -2.9701   -6.7194 H         1 <0>         0.0730
     43 H15        -5.8684   -2.9272   -7.4385 H         1 <0>         0.0968
     44 H16        -5.6207   -4.0549   -6.0841 H         1 <0>         0.0310
     45 H17        -6.3304   -3.4363   -3.8626 H         1 <0>         0.0413
     46 H18        -7.0974   -1.8543   -3.5858 H         1 <0>         0.0835
     47 H19        -8.0333   -3.8018   -5.7728 H         1 <0>         0.0666
     48 H20        -8.6765   -2.2372   -5.2192 H         1 <0>         0.1071
     49 H21       -10.1692   -3.1358   -7.2751 H         1 <0>         0.4009
     50 H22        -9.7362   -2.4390   -8.7413 H         1 <0>         0.4043
     51 H23         3.2721    4.4067   -0.1267 H         1 <0>         0.1328
     52 H24         2.8709    3.6890    1.4662 H         1 <0>         0.0853
@<TRIPOS>BOND
     1    1    6 ar
     2    1    2 ar
     3    1   31 1
     4    2    3 ar
     5    2   32 1
     6    3   30 1
     7    3    4 ar
     8    4    5 ar
     9    4   28 1
    10    5    6 ar
    11    5   33 1
    12    6    7 1
    13    7   12 am
    14    7    8 1
    15    8    9 1
    16    8   34 1
    17    8   35 1
    18    9   10 1
    19    9   11 1
    20    9   14 1
    21   11   12 1
    22   11   36 1
    23   11   37 1
    24   12   13 2
    25   14   15 2
    26   14   16 am
    27   16   17 1
    28   16   38 1
    29   17   18 1
    30   17   23 1
    31   17   19 1
    32   19   20 1
    33   19   39 1
    34   19   40 1
    35   20   21 1
    36   20   41 1
    37   20   42 1
    38   21   22 1
    39   21   43 1
    40   21   44 1
    41   22   23 1
    42   22   24 1
    43   23   45 1
    44   23   46 1
    45   24   25 1
    46   24   47 1
    47   24   48 1
    48   25   26 2
    49   25   27 am
    50   27   49 1
    51   27   50 1
    52   28   29 1
    53   29   30 1
    54   29   51 1
    55   29   52 1
@<TRIPOS>MOLECULE
ZINC03641206
   43    46     0     0     0
SMALL
USER_CHARGES
N-[2-(2-fluorophenyl)-3,5,8-trioxo-7-(trifluoromethyl)-2,4,9-triazabicyclo[4.3.0]non-10-en-7-yl]pyridine-4-carboxamide
@<TRIPOS>ATOM
      1 C1          1.6883   -2.6902   -2.0813 C.ar      1 <0>        -0.1181
      2 C2          1.7321   -3.5343   -0.9868 C.ar      1 <0>        -0.0595
      3 C3          1.8104   -3.0116    0.2907 C.ar      1 <0>        -0.1451
      4 C4          1.8506   -1.6415    0.4771 C.ar      1 <0>         0.1282
      5 C5          1.8018   -0.7911   -0.6218 C.ar      1 <0>         0.0457
      6 C6          1.7232   -1.3209   -1.9022 C.ar      1 <0>        -0.0580
      7 N1          1.8378    0.5982   -0.4372 N.am      1 <0>        -0.4710
      8 C7          0.6584    1.2988   -0.2829 C.2       1 <0>         0.5001
      9 C8          0.7259    2.6490   -0.1056 C.2       1 <0>        -0.3689
     10 C9          1.9680    3.2957   -0.0837 C.2       1 <0>         0.5925
     11 O1          2.0310    4.5028    0.0735 O.2       1 <0>        -0.4892
     12 N2          3.0944    2.5686   -0.2383 N.am      1 <0>        -0.6537
     13 H1          3.9861    3.0209   -0.2234 H         1 <0>         0.4501
     14 C10         3.0203    1.2365   -0.4124 C.2       1 <0>         0.7191
     15 O2          4.0449    0.5966   -0.5506 O.2       1 <0>        -0.5033
     16 C11        -0.6965    3.1382    0.0329 C.3       1 <0>         0.1891
     17 C12        -1.5206    1.8731   -0.1000 C.2       1 <0>         0.5543
     18 O3         -2.7292    1.7855   -0.0561 O.2       1 <0>        -0.4182
     19 N3         -0.6458    0.8666   -0.2738 N.am      1 <0>        -0.6254
     20 C13        -0.9124    3.7861    1.4020 C.3       1 <0>         0.4735
     21 F1         -0.1321    4.9433    1.4985 F         1 <0>        -0.1432
     22 F2         -2.2626    4.1203    1.5520 F         1 <0>        -0.1602
     23 F3         -0.5400    2.8873    2.4072 F         1 <0>        -0.1603
     24 N4         -1.0245    4.0808   -1.0396 N.am      1 <0>        -0.6914
     25 C14        -0.8715    3.7156   -2.3279 C.2       1 <0>         0.5781
     26 O4         -0.5493    2.5765   -2.6024 O.2       1 <0>        -0.5140
     27 C15        -1.0961    4.7029   -3.4094 C.ar      1 <0>        -0.0883
     28 C16        -1.4730    6.0169   -3.1157 C.ar      1 <0>        -0.1369
     29 C17        -1.6670    6.9062   -4.1550 C.ar      1 <0>         0.1029
     30 N5         -1.5118    6.5272   -5.4079 N.ar      1 <0>        -0.4625
     31 C18        -1.1628    5.2972   -5.7285 C.ar      1 <0>         0.1007
     32 C19        -0.9429    4.3449   -4.7522 C.ar      1 <0>        -0.1100
     33 F4          1.9328   -1.1305    1.7250 F         1 <0>        -0.1235
     34 H2          1.6271   -3.1022   -3.0778 H         1 <0>         0.1468
     35 H3          1.7054   -4.6044   -1.1304 H         1 <0>         0.1477
     36 H4          1.8445   -3.6734    1.1435 H         1 <0>         0.1520
     37 H5          1.6896   -0.6630   -2.7581 H         1 <0>         0.1446
     38 H6         -0.9068   -0.0610   -0.3846 H         1 <0>         0.4309
     39 H7         -1.3517    4.9677   -0.8225 H         1 <0>         0.4188
     40 H8         -1.6064    6.3330   -2.0917 H         1 <0>         0.1411
     41 H9         -1.9539    7.9245   -3.9382 H         1 <0>         0.1675
     42 H10        -1.0469    5.0304   -6.7686 H         1 <0>         0.1674
     43 H11        -0.6571    3.3390   -5.0222 H         1 <0>         0.1495
@<TRIPOS>BOND
     1    1    6 ar
     2    1    2 ar
     3    1   34 1
     4    2    3 ar
     5    2   35 1
     6    3    4 ar
     7    3   36 1
     8    4    5 ar
     9    4   33 1
    10    5    6 ar
    11    5    7 1
    12    6   37 1
    13    7   14 am
    14    7    8 1
    15    8   19 1
    16    8    9 2
    17    9   10 1
    18    9   16 1
    19   10   11 2
    20   10   12 am
    21   12   13 1
    22   12   14 am
    23   14   15 2
    24   16   17 1
    25   16   20 1
    26   16   24 1
    27   17   18 2
    28   17   19 am
    29   19   38 1
    30   20   21 1
    31   20   22 1
    32   20   23 1
    33   24   25 am
    34   24   39 1
    35   25   26 2
    36   25   27 1
    37   27   32 ar
    38   27   28 ar
    39   28   29 ar
    40   28   40 1
    41   29   30 ar
    42   29   41 1
    43   30   31 ar
    44   31   32 ar
    45   31   42 1
    46   32   43 1
@<TRIPOS>MOLECULE
ZINC12931181
   47    50     0     0     0
SMALL
USER_CHARGES
N-(4-fluoro-3-morpholinosulfonyl-phenyl)-2-oxo-1,3-dihydrobenzimidazole-5-sulfonamide
@<TRIPOS>ATOM
      1 C1          2.7580   -1.3436   -2.3912 C.ar      1 <0>        -0.0272
      2 C2          3.7586   -1.0428   -3.2948 C.ar      1 <0>        -0.1608
      3 C3          4.1027   -1.9554   -4.2773 C.ar      1 <0>         0.2047
      4 C4          3.4487   -3.1737   -4.3534 C.ar      1 <0>        -0.7109
      5 C5          2.4514   -3.4808   -3.4488 C.ar      1 <0>         0.0183
      6 C6          2.1045   -2.5667   -2.4622 C.ar      1 <0>         0.0964
      7 N1          1.0947   -2.8753   -1.5456 N.pl3     1 <0>        -1.0603
      8 S1          1.3837   -3.9624   -0.3303 S.o2      1 <0>         2.6890
      9 O1          1.9398   -5.1179   -0.9426 O.2       1 <0>        -0.9392
     10 O2          0.2033   -4.0121    0.4593 O.2       1 <0>        -0.9391
     11 C7          2.6450   -3.2778    0.6920 C.ar      1 <0>        -0.6735
     12 C8          2.3092   -2.3894    1.6993 C.ar      1 <0>        -0.0075
     13 C9          3.2907   -1.8475    2.5057 C.ar      1 <0>        -0.1230
     14 C10         4.6182   -2.1946    2.3053 C.ar      1 <0>         0.1501
     15 C11         4.9568   -3.0903    1.2891 C.ar      1 <0>         0.0709
     16 C12         3.9643   -3.6295    0.4848 C.ar      1 <0>         0.0003
     17 N2          6.3407   -3.2427    1.3315 N.am      1 <0>        -0.6391
     18 H1          6.8680   -3.8062    0.7438 H         1 <0>         0.4416
     19 C13         6.8217   -2.4748    2.3273 C.2       1 <0>         0.6867
     20 O3          7.9955   -2.3776    2.6329 O.2       1 <0>        -0.5397
     21 N3          5.8068   -1.8300    2.9332 N.am      1 <0>        -0.6398
     22 H2          5.8893   -1.2164    3.6798 H         1 <0>         0.4411
     23 S2          3.8897   -4.3331   -5.6048 S.o2      1 <0>         2.6883
     24 O4          5.3061   -4.4434   -5.5752 O.2       1 <0>        -0.9359
     25 O5          3.0345   -5.4556   -5.4381 O.2       1 <0>        -0.9372
     26 N4          3.4984   -3.6523   -7.0628 N.pl3     1 <0>        -0.9976
     27 C14         2.1708   -3.8586   -7.6631 C.3       1 <0>         0.0836
     28 C15         1.6022   -2.4846   -8.0525 C.3       1 <0>         0.0467
     29 O6          2.5606   -1.7909   -8.8551 O.3       1 <0>        -0.3737
     30 C16         3.7912   -1.5088   -8.1844 C.3       1 <0>         0.0484
     31 C17         4.4700   -2.8282   -7.7992 C.3       1 <0>         0.0803
     32 F1          5.0784   -1.6572   -5.1630 F         1 <0>        -0.1167
     33 H3          2.4870   -0.6297   -1.6274 H         1 <0>         0.1523
     34 H4          4.2697   -0.0931   -3.2376 H         1 <0>         0.1549
     35 H5          1.9414   -4.4309   -3.5087 H         1 <0>         0.1683
     36 H6          0.2250   -2.4527   -1.6216 H         1 <0>         0.4315
     37 H7          1.2753   -2.1191    1.8553 H         1 <0>         0.1533
     38 H8          3.0254   -1.1516    3.2878 H         1 <0>         0.1464
     39 H9          4.2225   -4.3226   -0.3022 H         1 <0>         0.1517
     40 H10         2.2624   -4.4858   -8.5499 H         1 <0>         0.0900
     41 H11         1.5114   -4.3386   -6.9400 H         1 <0>         0.1022
     42 H12         1.3937   -1.9058   -7.1527 H         1 <0>         0.0557
     43 H13         0.6815   -2.6197   -8.6200 H         1 <0>         0.1100
     44 H14         3.5906   -0.9265   -7.2851 H         1 <0>         0.0546
     45 H15         4.4456   -0.9427   -8.8472 H         1 <0>         0.1101
     46 H16         5.3338   -2.6255   -7.1661 H         1 <0>         0.1046
     47 H17         4.7896   -3.3537   -8.6991 H         1 <0>         0.0891
@<TRIPOS>BOND
     1    1    6 ar
     2    1    2 ar
     3    1   33 1
     4    2    3 ar
     5    2   34 1
     6    3    4 ar
     7    3   32 1
     8    4    5 ar
     9    4   23 1
    10    5    6 ar
    11    5   35 1
    12    6    7 1
    13    7    8 1
    14    7   36 1
    15    8    9 2
    16    8   10 2
    17    8   11 1
    18   11   16 ar
    19   11   12 ar
    20   12   13 ar
    21   12   37 1
    22   13   14 ar
    23   13   38 1
    24   14   21 1
    25   14   15 ar
    26   15   16 ar
    27   15   17 1
    28   16   39 1
    29   17   18 1
    30   17   19 am
    31   19   20 2
    32   19   21 am
    33   21   22 1
    34   23   24 2
    35   23   25 2
    36   23   26 1
    37   26   31 1
    38   26   27 1
    39   27   28 1
    40   27   40 1
    41   27   41 1
    42   28   29 1
    43   28   42 1
    44   28   43 1
    45   29   30 1
    46   30   31 1
    47   30   44 1
    48   30   45 1
    49   31   46 1
    50   31   47 1
@<TRIPOS>MOLECULE
ZINC21965160
   44    45     0     0     0
SMALL
USER_CHARGES
N-[(1S)-1-[[(4-bromo-1-methyl-pyrrole-2-carbonyl)amino]carbamoyl]-2-methyl-propyl]furan-2-carboxamide
@<TRIPOS>ATOM
      1 C1          4.3349    4.3551    2.9178 C.3       1 <0>        -0.1426
      2 C2          3.0397    3.5884    2.6428 C.3       1 <0>        -0.1011
      3 C3          2.0782    3.7733    3.8184 C.3       1 <0>        -0.1521
      4 C4          2.3915    4.1242    1.3646 C.3       1 <0>         0.1476
      5 H1          3.0718    4.0266    0.5057 H         1 <0>         0.1233
      6 C5          1.1158    3.3691    1.0938 C.2       1 <0>         0.5198
      7 O1          0.0590    3.9621    1.0436 O.2       1 <0>        -0.5359
      8 N1          1.1492    2.0347    0.9072 N.am      1 <0>        -0.5225
      9 N2         -0.0368    1.3327    0.6554 N.am      1 <0>        -0.5211
     10 C6         -0.0034   -0.0017    0.4688 C.2       1 <0>         0.5968
     11 O2          1.0649   -0.5823    0.4168 O.2       1 <0>        -0.5478
     12 C7         -1.2546   -0.7541    0.3284 C.2       1 <0>        -0.0384
     13 C8         -2.5249   -0.2205    0.2769 C.2       1 <0>        -0.1066
     14 C9         -3.4149   -1.2904    0.1360 C.2       1 <0>        -0.1777
     15 C10        -2.6890   -2.4344    0.1139 C.2       1 <0>         0.0645
     16 N3         -1.3746   -2.1218    0.2301 N.pl3     1 <0>        -0.3993
     17 C11        -0.2668   -3.0802    0.2480 C.3       1 <0>         0.0685
     18 Br1        -5.2972   -1.1635    0.0067 Br        1 <0>        -0.0209
     19 N4          2.0903    5.5484    1.5298 N.am      1 <0>        -0.7150
     20 C12         3.0403    6.4714    1.2809 C.2       1 <0>         0.6121
     21 O3          4.1483    6.1218    0.9188 O.2       1 <0>        -0.5169
     22 C13         2.7387    7.8970    1.4463 C.2       1 <0>        -0.0826
     23 C14         3.6042    8.9306    1.2291 C.2       1 <0>        -0.1153
     24 C15         2.8993   10.1123    1.5068 C.2       1 <0>        -0.2259
     25 C16         1.6503    9.7527    1.8765 C.2       1 <0>        -0.0012
     26 O4          1.5559    8.4174    1.8339 O.3       1 <0>        -0.1640
     27 H2          5.0262    4.2221    2.0726 H         1 <0>         0.0689
     28 H3          4.8009    3.9699    3.8367 H         1 <0>         0.0561
     29 H4          4.1087    5.4244    3.0418 H         1 <0>         0.0571
     30 H5          3.2658    2.5190    2.5189 H         1 <0>         0.0855
     31 H6          1.1470    3.2221    3.6207 H         1 <0>         0.0539
     32 H7          1.8520    4.8426    3.9424 H         1 <0>         0.0613
     33 H8          2.5443    3.3881    4.7373 H         1 <0>         0.0641
     34 H9          2.1076    1.4968    0.9526 H         1 <0>         0.4613
     35 H10        -0.9952    1.8706    0.6100 H         1 <0>         0.4618
     36 H11        -2.7839    0.8266    0.3323 H         1 <0>         0.1550
     37 H12        -3.0915   -3.4322    0.0198 H         1 <0>         0.1832
     38 H13        -0.6640   -4.1015    0.1522 H         1 <0>         0.0933
     39 H14         0.2826   -2.9879    1.1965 H         1 <0>         0.0896
     40 H15         0.4128   -2.8708   -0.5913 H         1 <0>         0.0921
     41 H16         1.0888    5.8644    1.8570 H         1 <0>         0.4399
     42 H17         4.6321    8.8538    0.9069 H         1 <0>         0.1610
     43 H18         3.2830   11.1194    1.4378 H         1 <0>         0.1583
     44 H19         0.8574   10.4307    2.1560 H         1 <0>         0.2119
@<TRIPOS>BOND
     1    1    2 1
     2    1   27 1
     3    1   28 1
     4    1   29 1
     5    2    3 1
     6    2    4 1
     7    2   30 1
     8    3   31 1
     9    3   32 1
    10    3   33 1
    11    4    5 1
    12    4    6 1
    13    4   19 1
    14    6    7 2
    15    6    8 am
    16    8    9 1
    17    8   34 1
    18    9   10 am
    19    9   35 1
    20   10   11 2
    21   10   12 1
    22   12   16 1
    23   12   13 2
    24   13   14 1
    25   13   36 1
    26   14   15 2
    27   14   18 1
    28   15   16 1
    29   15   37 1
    30   16   17 1
    31   17   38 1
    32   17   39 1
    33   17   40 1
    34   19   20 am
    35   19   41 1
    36   20   21 2
    37   20   22 1
    38   22   26 1
    39   22   23 2
    40   23   24 1
    41   23   42 1
    42   24   25 2
    43   24   43 1
    44   25   26 1
    45   25   44 1
@<TRIPOS>MOLECULE
ZINC16957745
   44    46     0     0     0
SMALL
USER_CHARGES

@<TRIPOS>ATOM
      1 C1         -0.6272    0.8804   -1.9823 C.3       1 <0>         0.0337
      2 O1         -0.4464   -0.4315   -1.4455 O.3       1 <0>        -0.3485
      3 C2         -1.3596   -0.8584   -0.5591 C.2       1 <0>         0.4785
      4 O2         -2.2819   -0.1420   -0.2493 O.2       1 <0>        -0.4732
      5 C3         -1.2344   -2.2313    0.0496 C.3       1 <0>         0.0463
      6 H1         -0.6720   -2.8777   -0.6242 H         1 <0>         0.1543
      7 C4         -2.6082   -2.8099    0.2706 C.2       1 <0>         0.0905
      8 C5         -3.4665   -3.1148   -0.8793 C.2       1 <0>         0.5106
      9 O3         -3.0757   -2.9036   -2.0132 O.2       1 <0>        -0.5082
     10 N1         -4.6957   -3.6333   -0.6653 N.am      1 <0>        -0.6142
     11 H2         -5.2790   -3.8424   -1.4115 H         1 <0>         0.4248
     12 C6         -5.1080   -3.8611    0.6322 C.ar      1 <0>         0.1574
     13 C7         -6.3683   -4.3947    0.8860 C.ar      1 <0>        -0.1625
     14 C8         -6.7690   -4.6182    2.1848 C.ar      1 <0>        -0.0470
     15 C9         -5.9249   -4.3147    3.2453 C.ar      1 <0>        -0.1452
     16 C10        -4.6857   -3.7911    3.0205 C.ar      1 <0>        -0.0213
     17 C11        -4.2525   -3.5540    1.7066 C.ar      1 <0>         0.0158
     18 N2         -3.0271   -3.0424    1.4815 N.2       1 <0>        -0.3273
     19 C12        -0.5129   -2.1320    1.3690 C.2       1 <0>         0.0588
     20 N3         -1.1459   -2.3682    2.4713 N.2       1 <0>        -0.1659
     21 O4         -0.4866   -2.2093    3.7143 O.3       1 <0>        -0.3609
     22 C13         0.9157   -1.7651    1.4027 C.2       1 <0>         0.5311
     23 O5          1.4652   -1.5581    2.4673 O.2       1 <0>        -0.4717
     24 N4          1.6117   -1.6595    0.2534 N.am      1 <0>        -0.6656
     25 C14         2.9896   -1.4245    0.2895 C.ar      1 <0>         0.1636
     26 C15         3.7633   -1.9761    1.3027 C.ar      1 <0>        -0.1147
     27 C16         5.1239   -1.7422    1.3359 C.ar      1 <0>        -0.0689
     28 C17         5.7166   -0.9589    0.3613 C.ar      1 <0>        -0.1056
     29 C18         4.9483   -0.4077   -0.6489 C.ar      1 <0>        -0.0696
     30 C19         3.5883   -0.6436   -0.6909 C.ar      1 <0>        -0.1352
     31 Br1         7.5799   -0.6404    0.4106 Br        1 <0>        -0.0491
     32 H3          0.1777    1.1001   -2.6837 H         1 <0>         0.1111
     33 H4         -1.5848    0.9322   -2.5004 H         1 <0>         0.0676
     34 H5         -0.6125    1.6097   -1.1723 H         1 <0>         0.0650
     35 H6         -7.0305   -4.6326    0.0666 H         1 <0>         0.1397
     36 H7         -7.7472   -5.0323    2.3801 H         1 <0>         0.1401
     37 H8         -6.2533   -4.4948    4.2583 H         1 <0>         0.1400
     38 H9         -4.0379   -3.5593    3.8530 H         1 <0>         0.1461
     39 H10        -1.0404   -2.4087    4.4815 H         1 <0>         0.4064
     40 H11         1.1567   -1.7466   -0.5989 H         1 <0>         0.4166
     41 H12         3.3011   -2.5870    2.0640 H         1 <0>         0.1417
     42 H13         5.7259   -2.1708    2.1234 H         1 <0>         0.1374
     43 H14         5.4135    0.2039   -1.4078 H         1 <0>         0.1386
     44 H15         2.9899   -0.2171   -1.4824 H         1 <0>         0.1387
@<TRIPOS>BOND
     1    1    2 1
     2    1   32 1
     3    1   33 1
     4    1   34 1
     5    2    3 1
     6    3    4 2
     7    3    5 1
     8    5    6 1
     9    5    7 1
    10    5   19 1
    11    7   18 2
    12    7    8 1
    13    8    9 2
    14    8   10 am
    15   10   11 1
    16   10   12 1
    17   12   17 ar
    18   12   13 ar
    19   13   14 ar
    20   13   35 1
    21   14   15 ar
    22   14   36 1
    23   15   16 ar
    24   15   37 1
    25   16   17 ar
    26   16   38 1
    27   17   18 1
    28   19   20 2
    29   19   22 1
    30   20   21 1
    31   21   39 1
    32   22   23 2
    33   22   24 am
    34   24   25 1
    35   24   40 1
    36   25   30 ar
    37   25   26 ar
    38   26   27 ar
    39   26   41 1
    40   27   28 ar
    41   27   42 1
    42   28   29 ar
    43   28   31 1
    44   29   30 ar
    45   29   43 1
    46   30   44 1
@<TRIPOS>MOLECULE
ZINC20745563
   46    50     0     0     0
SMALL
USER_CHARGES

@<TRIPOS>ATOM
      1 C1         -0.0168    1.3865    0.0097 C.ar      1 <0>        -0.1413
      2 C2          1.1515    2.1210    0.0025 C.ar      1 <0>        -0.0781
      3 C3          2.3985    1.5161   -0.0127 C.ar      1 <0>        -0.1355
      4 C4          2.4315    0.1207   -0.0202 C.ar      1 <0>         0.1594
      5 C5          1.2384   -0.6132   -0.0127 C.ar      1 <0>        -0.1346
      6 C6          0.0021   -0.0041    0.0020 C.ar      1 <0>        -0.0467
      7 C7          1.6360   -2.0538   -0.0230 C.3       1 <0>         0.0476
      8 C8          1.1066   -2.7680   -1.2656 C.3       1 <0>        -0.0921
      9 C9         -0.3240   -3.1903   -1.0894 C.2       1 <0>         0.4192
     10 N1         -0.8354   -3.5358    0.0539 N.2       1 <0>        -0.5588
     11 C10        -0.0676   -3.4740    1.1788 C.2       1 <0>         0.3123
     12 C11         1.1330   -2.7716    1.1977 C.2       1 <0>        -0.2694
     13 C12         1.6728   -2.8905    2.4645 C.2       1 <0>         0.1039
     14 N2          0.8569   -3.6117    3.1995 N.2       1 <0>        -0.2776
     15 N3         -0.2495   -3.9836    2.4182 N.pl3     1 <0>        -0.2980
     16 C13        -1.3450   -4.7451    2.8460 C.ar      1 <0>         0.1556
     17 C14        -2.6131   -4.4816    2.3455 C.ar      1 <0>        -0.0973
     18 C15        -3.6913   -5.2336    2.7689 C.ar      1 <0>        -0.0924
     19 C16        -3.5087   -6.2488    3.6915 C.ar      1 <0>        -0.0357
     20 C17        -2.2460   -6.5132    4.1922 C.ar      1 <0>        -0.0940
     21 C18        -1.1634   -5.7684    3.7670 C.ar      1 <0>        -0.0951
     22 Cl1        -4.8662   -7.1920    4.2221 Cl        1 <0>        -0.0607
     23 O1         -1.1210   -3.2125   -2.1774 O.3       1 <0>        -0.4481
     24 C19         3.1480   -2.0297   -0.0361 C.2       1 <0>         0.5512
     25 O2          3.8852   -2.9927   -0.0464 O.2       1 <0>        -0.4742
     26 N4          3.5211   -0.7322   -0.0349 N.am      1 <0>        -0.5337
     27 C20         4.9147   -0.2807   -0.0477 C.3       1 <0>         0.0885
     28 C21         5.4074   -0.1314    1.3686 C.2       1 <0>         0.4987
     29 O3          4.6674   -0.3779    2.2973 O.2       1 <0>        -0.5239
     30 N5          6.6705    0.2761    1.6033 N.am      1 <0>        -0.8508
     31 H1         -0.9655    1.9023    0.0261 H         1 <0>         0.1277
     32 H2          1.0924    3.1994    0.0084 H         1 <0>         0.1294
     33 H3          3.3069    2.1002   -0.0187 H         1 <0>         0.1323
     34 H4         -0.9110   -0.5808    0.0077 H         1 <0>         0.1284
     35 H5          1.1769   -2.0952   -2.1203 H         1 <0>         0.1191
     36 H6          1.7176   -3.6502   -1.4569 H         1 <0>         0.1234
     37 H7          2.6080   -2.4629    2.7944 H         1 <0>         0.1896
     38 H8         -2.7562   -3.6889    1.6261 H         1 <0>         0.1466
     39 H9         -4.6778   -5.0290    2.3799 H         1 <0>         0.1442
     40 H10        -2.1061   -7.3058    4.9123 H         1 <0>         0.1443
     41 H11        -0.1774   -5.9783    4.1544 H         1 <0>         0.1439
     42 H12        -2.0282   -3.4930   -1.9947 H         1 <0>         0.4153
     43 H13         5.5293   -1.0133   -0.5709 H         1 <0>         0.1251
     44 H14         4.9807    0.6800   -0.5585 H         1 <0>         0.1217
     45 H15         7.2624    0.4733    0.8606 H         1 <0>         0.4036
     46 H16         6.9877    0.3722    2.5149 H         1 <0>         0.4071
@<TRIPOS>BOND
     1    1    6 ar
     2    1    2 ar
     3    1   31 1
     4    2    3 ar
     5    2   32 1
     6    3    4 ar
     7    3   33 1
     8    4   26 1
     9    4    5 ar
    10    5    6 ar
    11    5    7 1
    12    6   34 1
    13    7   12 1
    14    7    8 1
    15    7   24 1
    16    8    9 1
    17    8   35 1
    18    8   36 1
    19    9   10 2
    20    9   23 1
    21   10   11 1
    22   11   15 1
    23   11   12 2
    24   12   13 1
    25   13   14 2
    26   13   37 1
    27   14   15 1
    28   15   16 1
    29   16   21 ar
    30   16   17 ar
    31   17   18 ar
    32   17   38 1
    33   18   19 ar
    34   18   39 1
    35   19   20 ar
    36   19   22 1
    37   20   21 ar
    38   20   40 1
    39   21   41 1
    40   23   42 1
    41   24   25 2
    42   24   26 am
    43   26   27 1
    44   27   28 1
    45   27   43 1
    46   27   44 1
    47   28   29 2
    48   28   30 am
    49   30   45 1
    50   30   46 1
@<TRIPOS>MOLECULE
ZINC03371049
   37    38     0     0     0
SMALL
USER_CHARGES
(4-sulfamoylphenyl)carbamoylmethyl 3-iodobenzoate
@<TRIPOS>ATOM
      1 C1          1.1786    1.7810    0.0107 C.ar      1 <0>        -0.1246
      2 C2          1.1671    3.1606    0.0213 C.ar      1 <0>        -0.0342
      3 C3         -0.0494    3.8456    0.0296 C.ar      1 <0>        -0.1244
      4 C4         -1.2474    3.1283    0.0271 C.ar      1 <0>        -0.0261
      5 C5         -1.2217    1.7488    0.0106 C.ar      1 <0>        -0.1184
      6 C6         -0.0117    1.0761    0.0082 C.ar      1 <0>        -0.0460
      7 I1         -3.0175    0.6698   -0.0019 I         1 <0>        -0.0228
      8 C7         -0.0690    5.3227    0.0406 C.2       1 <0>         0.5169
      9 O1          0.9748    5.9440    0.0424 O.2       1 <0>        -0.4966
     10 O2         -1.2445    5.9806    0.0486 O.3       1 <0>        -0.3277
     11 C8         -1.1878    7.4315    0.0592 C.3       1 <0>         0.0521
     12 C9         -2.5879    7.9889    0.0670 C.2       1 <0>         0.5170
     13 O3         -3.5399    7.2373    0.0640 O.2       1 <0>        -0.4843
     14 N1         -2.7823    9.3225    0.0774 N.am      1 <0>        -0.6726
     15 C10        -4.0787    9.8413   -0.0130 C.ar      1 <0>         0.2043
     16 C11        -4.3069   11.0285   -0.6963 C.ar      1 <0>        -0.1643
     17 C12        -5.5887   11.5345   -0.7894 C.ar      1 <0>         0.0043
     18 C13        -6.6422   10.8669   -0.1922 C.ar      1 <0>        -0.6924
     19 C14        -6.4173    9.6877    0.4942 C.ar      1 <0>        -0.0004
     20 C15        -5.1389    9.1731    0.5853 C.ar      1 <0>        -0.1435
     21 S1         -8.2747   11.5199   -0.3066 S.o2      1 <0>         2.7034
     22 O4         -8.3022   12.3445   -1.4635 O.2       1 <0>        -0.9625
     23 O5         -9.1633   10.4251   -0.1300 O.2       1 <0>        -0.9592
     24 N2         -8.4936   12.5216    0.9938 N.pl3     1 <0>        -1.2482
     25 H1          2.1191    1.2501    0.0039 H         1 <0>         0.1456
     26 H2          2.0972    3.7095    0.0229 H         1 <0>         0.1467
     27 H3         -2.1919    3.6521    0.0335 H         1 <0>         0.1483
     28 H4          0.0031   -0.0037   -0.0002 H         1 <0>         0.1393
     29 H5         -0.6578    7.7679    0.9502 H         1 <0>         0.1117
     30 H6         -0.6626    7.7810   -0.8297 H         1 <0>         0.1119
     31 H7         -2.0235    9.9227    0.1475 H         1 <0>         0.4191
     32 H8         -3.4838   11.5531   -1.1586 H         1 <0>         0.1399
     33 H9         -5.7677   12.4549   -1.3254 H         1 <0>         0.1488
     34 H10        -7.2422    9.1685    0.9593 H         1 <0>         0.1483
     35 H11        -4.9640    8.2517    1.1209 H         1 <0>         0.1511
     36 H12        -9.0883   13.2846    0.9236 H         1 <0>         0.4221
     37 H13        -8.0271   12.3453    1.8258 H         1 <0>         0.4171
@<TRIPOS>BOND
     1    1    6 ar
     2    1    2 ar
     3    1   25 1
     4    2    3 ar
     5    2   26 1
     6    3    4 ar
     7    3    8 1
     8    4    5 ar
     9    4   27 1
    10    5    6 ar
    11    5    7 1
    12    6   28 1
    13    8    9 2
    14    8   10 1
    15   10   11 1
    16   11   12 1
    17   11   29 1
    18   11   30 1
    19   12   13 2
    20   12   14 am
    21   14   15 1
    22   14   31 1
    23   15   20 ar
    24   15   16 ar
    25   16   17 ar
    26   16   32 1
    27   17   18 ar
    28   17   33 1
    29   18   19 ar
    30   18   21 1
    31   19   20 ar
    32   19   34 1
    33   20   35 1
    34   21   22 2
    35   21   23 2
    36   21   24 1
    37   24   36 1
    38   24   37 1
@<TRIPOS>MOLECULE
ZINC12658945
   75    79     0     0     0
SMALL
USER_CHARGES
2-[[(8R,9S,10R,13S,14S,17R)-17-hydroxy-10,13-dimethyl-1,2,6,7,8,9,11,12,14,15,16,17-dodecahydrocyclopenta[a]phenanthren-3-ylidene]amino]oxy-N-[(3R)-2-oxoazepan-3-yl]acetamide
@<TRIPOS>ATOM
      1 C1          7.0467    5.6261    1.8867 C.3       1 <0>        -0.1509
      2 C2          6.7863    5.9489    0.4140 C.3       1 <0>        -0.0563
      3 C3          5.4395    6.6300    0.2642 C.3       1 <0>        -0.0912
      4 C4          4.3910    5.7129    0.9142 C.3       1 <0>        -0.1257
      5 C5          4.3907    4.3242    0.2824 C.3       1 <0>        -0.0632
      6 H1          4.0609    4.4148   -0.7525 H         1 <0>         0.0703
      7 C6          5.7912    3.6893    0.3141 C.3       1 <0>        -0.0795
      8 H2          6.1164    3.5693    1.3475 H         1 <0>         0.0869
      9 C7          6.7312    4.6351   -0.4109 C.3       1 <0>        -0.0795
     10 H3          6.3727    4.8225   -1.4230 H         1 <0>         0.0784
     11 C8          8.2066    4.2216   -0.4365 C.3       1 <0>        -0.1153
     12 C9          8.9406    5.5689   -0.6781 C.3       1 <0>        -0.1572
     13 C10         7.9876    6.6816   -0.1748 C.3       1 <0>         0.1104
     14 H4          8.4781    7.2802    0.5927 H         1 <0>         0.0562
     15 O1          7.5766    7.5110   -1.2635 O.3       1 <0>        -0.5606
     16 C11         5.7658    2.3342   -0.3932 C.3       1 <0>        -0.1103
     17 C12         4.8315    1.3723    0.3494 C.3       1 <0>        -0.0918
     18 C13         3.4720    2.0465    0.4379 C.2       1 <0>        -0.0479
     19 C14         2.4081    1.3988   -0.0072 C.2       1 <0>        -0.1748
     20 C15         1.0958    2.0747    0.0027 C.2       1 <0>         0.1768
     21 N1         -0.0171    1.4118    0.0098 N.2       1 <0>        -0.3433
     22 O2          0.0021   -0.0041    0.0020 O.3       1 <0>        -0.2153
     23 C16        -1.2953   -0.6030    0.0112 C.3       1 <0>         0.0607
     24 C17        -1.1560   -2.1035    0.0018 C.2       1 <0>         0.5254
     25 O3         -0.0541   -2.6101   -0.0114 O.2       1 <0>        -0.5191
     26 N2         -2.2558   -2.8825    0.0081 N.am      1 <0>        -0.7078
     27 C18        -2.1203   -4.3412   -0.0010 C.3       1 <0>         0.1322
     28 H5         -1.2507   -4.6245   -0.5939 H         1 <0>         0.1153
     29 C19        -3.3795   -4.9709   -0.6017 C.3       1 <0>        -0.1220
     30 C20        -3.0727   -6.3409   -1.1787 C.3       1 <0>        -0.1211
     31 C21        -2.6959   -7.3754   -0.1339 C.3       1 <0>        -0.1447
     32 C22        -1.3566   -7.0283    0.5190 C.3       1 <0>         0.1018
     33 N3         -1.6043   -6.1114    1.6435 N.am      1 <0>        -0.7216
     34 C23        -1.9606   -4.8462    1.4176 C.2       1 <0>         0.5070
     35 O4         -2.1573   -4.0977    2.3514 O.2       1 <0>        -0.5383
     36 C24         1.1274    3.5915    0.0106 C.3       1 <0>        -0.0603
     37 C25         2.0475    4.0276    1.1506 C.3       1 <0>        -0.1115
     38 C26         3.4228    3.4157    1.0416 C.3       1 <0>        -0.0225
     39 C27         3.9663    3.2898    2.4663 C.3       1 <0>        -0.1543
     40 H6          7.9974    5.1014    1.9811 H         1 <0>         0.0567
     41 H7          7.0843    6.5521    2.4605 H         1 <0>         0.0549
     42 H8          6.2439    4.9949    2.2678 H         1 <0>         0.0736
     43 H9          5.4533    7.5952    0.7705 H         1 <0>         0.0611
     44 H10         5.2091    6.7686   -0.7921 H         1 <0>         0.0705
     45 H11         3.4039    6.1591    0.7933 H         1 <0>         0.0666
     46 H12         4.6102    5.6199    1.9779 H         1 <0>         0.0708
     47 H13         8.5021    3.7872    0.5185 H         1 <0>         0.0683
     48 H14         8.3974    3.5237   -1.2517 H         1 <0>         0.0658
     49 H15         9.8738    5.5927   -0.1154 H         1 <0>         0.0665
     50 H16         9.1418    5.7000   -1.7413 H         1 <0>         0.0720
     51 H17         8.3041    7.9716   -1.7035 H         1 <0>         0.3753
     52 H18         5.4109    2.4662   -1.4153 H         1 <0>         0.0639
     53 H19         6.7728    1.9175   -0.4127 H         1 <0>         0.0673
     54 H20         4.7442    0.4387   -0.2064 H         1 <0>         0.0734
     55 H21         5.2229    1.1732    1.3471 H         1 <0>         0.0789
     56 H22         2.5023    0.3929   -0.3889 H         1 <0>         0.1291
     57 H23        -1.8320   -0.2936    0.9080 H         1 <0>         0.0896
     58 H24        -1.8490   -0.2840   -0.8718 H         1 <0>         0.0882
     59 H25        -3.1371   -2.4773    0.0187 H         1 <0>         0.4079
     60 H26        -4.1369   -5.0703    0.1759 H         1 <0>         0.0751
     61 H27        -3.7610   -4.3255   -1.3929 H         1 <0>         0.0876
     62 H28        -3.9505   -6.6956   -1.7187 H         1 <0>         0.0760
     63 H29        -2.2470   -6.2446   -1.8836 H         1 <0>         0.0694
     64 H30        -3.4702   -7.4092    0.6326 H         1 <0>         0.0730
     65 H31        -2.6193   -8.3533   -0.6092 H         1 <0>         0.0823
     66 H32        -0.8822   -7.9382    0.8867 H         1 <0>         0.0915
     67 H33        -0.7071   -6.5471   -0.2122 H         1 <0>         0.0787
     68 H34        -1.5079   -6.4294    2.5548 H         1 <0>         0.4030
     69 H35         1.5160    3.9584   -0.9394 H         1 <0>         0.0944
     70 H36         0.1231    3.9816    0.1758 H         1 <0>         0.0888
     71 H37         2.1413    5.1134    1.1335 H         1 <0>         0.0895
     72 H38         1.6015    3.7280    2.0990 H         1 <0>         0.0706
     73 H39         3.3049    2.6519    3.0525 H         1 <0>         0.0546
     74 H40         4.9633    2.8503    2.4373 H         1 <0>         0.0646
     75 H41         4.0180    4.2777    2.9241 H         1 <0>         0.0652
@<TRIPOS>BOND
     1    1    2 1
     2    1   40 1
     3    1   41 1
     4    1   42 1
     5    2    9 1
     6    2   13 1
     7    2    3 1
     8    3    4 1
     9    3   43 1
    10    3   44 1
    11    4    5 1
    12    4   45 1
    13    4   46 1
    14    5    6 1
    15    5   38 1
    16    5    7 1
    17    7    8 1
    18    7    9 1
    19    7   16 1
    20    9   10 1
    21    9   11 1
    22   11   12 1
    23   11   47 1
    24   11   48 1
    25   12   13 1
    26   12   49 1
    27   12   50 1
    28   13   14 1
    29   13   15 1
    30   15   51 1
    31   16   17 1
    32   16   52 1
    33   16   53 1
    34   17   18 1
    35   17   54 1
    36   17   55 1
    37   18   38 1
    38   18   19 2
    39   19   20 1
    40   19   56 1
    41   20   21 2
    42   20   36 1
    43   21   22 1
    44   22   23 1
    45   23   24 1
    46   23   57 1
    47   23   58 1
    48   24   25 2
    49   24   26 am
    50   26   27 1
    51   26   59 1
    52   27   28 1
    53   27   34 1
    54   27   29 1
    55   29   30 1
    56   29   60 1
    57   29   61 1
    58   30   31 1
    59   30   62 1
    60   30   63 1
    61   31   32 1
    62   31   64 1
    63   31   65 1
    64   32   33 1
    65   32   66 1
    66   32   67 1
    67   33   34 am
    68   33   68 1
    69   34   35 2
    70   36   37 1
    71   36   69 1
    72   36   70 1
    73   37   38 1
    74   37   71 1
    75   37   72 1
    76   38   39 1
    77   39   73 1
    78   39   74 1
    79   39   75 1
@<TRIPOS>MOLECULE
ZINC20610656
   59    63     0     0     0
SMALL
USER_CHARGES
(3aS,4R,6R,6aR)-2-(4-butylphenyl)-4-(1-hydroxyethyl)spiro[3a,4,5,6a-tetrahydropyrrolo[3,4-c]pyrrole-6,3'-indoline]-1,2',3-trione
@<TRIPOS>ATOM
      1 C1        -13.2371   -3.5467   -0.4956 C.3       1 <0>        -0.1555
      2 C2        -12.7025   -2.4544   -1.4239 C.3       1 <0>        -0.1259
      3 C3        -11.2000   -2.2799   -1.1938 C.3       1 <0>        -0.1153
      4 C4        -10.6653   -1.1875   -2.1221 C.3       1 <0>        -0.0844
      5 C5         -9.1854   -1.0157   -1.8955 C.ar      1 <0>        -0.0682
      6 C6         -8.2834   -1.7611   -2.6322 C.ar      1 <0>        -0.1091
      7 C7         -6.9264   -1.6054   -2.4270 C.ar      1 <0>        -0.0969
      8 C8         -6.4684   -0.6995   -1.4800 C.ar      1 <0>         0.1052
      9 C9         -7.3765    0.0434   -0.7379 C.ar      1 <0>        -0.0874
     10 C10        -8.7322   -0.1125   -0.9515 C.ar      1 <0>        -0.1083
     11 N1         -5.0916   -0.5392   -1.2695 N.am      1 <0>        -0.5196
     12 C11        -4.3237   -1.4994   -0.7416 C.2       1 <0>         0.5395
     13 O1         -4.7125   -2.5917   -0.3877 O.2       1 <0>        -0.4492
     14 C12        -2.8962   -1.0101   -0.6549 C.3       1 <0>        -0.1058
     15 H1         -2.2105   -1.7045   -1.1625 H         1 <0>         0.1495
     16 C13        -2.9766    0.4345   -1.2228 C.3       1 <0>        -0.1054
     17 H2         -2.3346    0.6735   -2.0834 H         1 <0>         0.1469
     18 C14        -4.4384    0.5863   -1.5800 C.2       1 <0>         0.5351
     19 O2         -4.9403    1.5744   -2.0714 O.2       1 <0>        -0.4436
     20 C15        -2.6435    1.3370   -0.0283 C.3       1 <0>         0.1230
     21 C16        -1.2064    1.7737   -0.0559 C.ar      1 <0>        -0.1855
     22 C17        -0.0085    1.0948   -0.0330 C.ar      1 <0>        -0.0521
     23 C18         1.1847    1.7946   -0.0629 C.ar      1 <0>        -0.1436
     24 C19         1.1709    3.1767   -0.1106 C.ar      1 <0>        -0.0696
     25 C20        -0.0264    3.8611   -0.1280 C.ar      1 <0>        -0.1428
     26 C21        -1.2324    3.1646   -0.0979 C.ar      1 <0>         0.1622
     27 N2         -2.5515    3.6231   -0.1058 N.am      1 <0>        -0.6750
     28 C22        -3.4408    2.6120   -0.0651 C.2       1 <0>         0.5513
     29 O3         -4.6497    2.7106   -0.0593 O.2       1 <0>        -0.4527
     30 N3         -2.9497    0.5437    1.1764 N.3       1 <0>        -0.6226
     31 C23        -2.5071   -0.8325    0.8279 C.3       1 <0>         0.0900
     32 H3         -1.4288   -0.9502    1.0110 H         1 <0>         0.0887
     33 C24        -3.2325   -1.8612    1.6978 C.3       1 <0>         0.1172
     34 H4         -4.3193   -1.8297    1.5305 H         1 <0>         0.0633
     35 C25        -2.8902   -1.6170    3.1689 C.3       1 <0>        -0.1848
     36 O4         -2.8188   -3.1771    1.3246 O.3       1 <0>        -0.5890
     37 H5        -14.3173   -3.6721   -0.6610 H         1 <0>         0.0545
     38 H6        -13.0574   -3.2589    0.5508 H         1 <0>         0.0541
     39 H7        -12.7209   -4.4943   -0.7091 H         1 <0>         0.0542
     40 H8        -12.8822   -2.7422   -2.4703 H         1 <0>         0.0623
     41 H9        -13.2186   -1.5068   -1.2104 H         1 <0>         0.0623
     42 H10       -11.0203   -1.9922   -0.1474 H         1 <0>         0.0643
     43 H11       -10.6838   -3.2275   -1.4073 H         1 <0>         0.0646
     44 H12       -10.8451   -1.4752   -3.1685 H         1 <0>         0.0752
     45 H13       -11.1814   -0.2398   -1.9086 H         1 <0>         0.0753
     46 H14        -8.6402   -2.4655   -3.3690 H         1 <0>         0.1300
     47 H15        -6.2223   -2.1876   -3.0029 H         1 <0>         0.1242
     48 H16        -7.0233    0.7455    0.0029 H         1 <0>         0.1297
     49 H17        -9.4391    0.4683   -0.3777 H         1 <0>         0.1296
     50 H18        -0.0005    0.0155    0.0039 H         1 <0>         0.1276
     51 H19         2.1245    1.2627   -0.0494 H         1 <0>         0.1327
     52 H20         2.1024    3.7228   -0.1347 H         1 <0>         0.1338
     53 H21        -0.0290    4.9405   -0.1654 H         1 <0>         0.1298
     54 H22        -2.7583    4.7029   -0.1422 H         1 <0>         0.4439
     55 H23        -2.3950    0.9512    2.0345 H         1 <0>         0.3667
     56 H24        -3.4117   -2.3565    3.7943 H         1 <0>         0.0616
     57 H25        -3.2087   -0.6041    3.4562 H         1 <0>         0.0689
     58 H26        -1.8042   -1.7149    3.3138 H         1 <0>         0.0620
     59 H27        -3.2361   -4.0527    1.8434 H         1 <0>         0.4133
@<TRIPOS>BOND
     1    1    2 1
     2    1   37 1
     3    1   38 1
     4    1   39 1
     5    2    3 1
     6    2   40 1
     7    2   41 1
     8    3    4 1
     9    3   42 1
    10    3   43 1
    11    4    5 1
    12    4   44 1
    13    4   45 1
    14    5   10 ar
    15    5    6 ar
    16    6    7 ar
    17    6   46 1
    18    7    8 ar
    19    7   47 1
    20    8    9 ar
    21    8   11 1
    22    9   10 ar
    23    9   48 1
    24   10   49 1
    25   11   18 am
    26   11   12 am
    27   12   13 2
    28   12   14 1
    29   14   15 1
    30   14   31 1
    31   14   16 1
    32   16   17 1
    33   16   18 1
    34   16   20 1
    35   18   19 2
    36   20   28 1
    37   20   21 1
    38   20   30 1
    39   21   26 ar
    40   21   22 ar
    41   22   23 ar
    42   22   50 1
    43   23   24 ar
    44   23   51 1
    45   24   25 ar
    46   24   52 1
    47   25   26 ar
    48   25   53 1
    49   26   27 1
    50   27   28 am
    51   27   54 1
    52   28   29 2
    53   30   31 1
    54   30   55 1
    55   31   32 1
    56   31   33 1
    57   33   34 1
    58   33   35 1
    59   33   36 1
    60   35   56 1
    61   35   57 1
    62   35   58 1
    63   36   59 1
@<TRIPOS>MOLECULE
ZINC39338115
   41    44     0     0     0
SMALL
USER_CHARGES

@<TRIPOS>ATOM
      1 C1         -0.0162    1.3969    0.5594 C.ar      1 <0>        -0.0434
      2 C2          1.1722    2.0764    0.7229 C.ar      1 <0>        -0.1034
      3 C3          2.3718    1.3842    0.7457 C.ar      1 <0>        -0.0599
      4 C4          2.3862    0.0063    0.6043 C.ar      1 <0>        -0.1018
      5 C5          1.2048   -0.6852    0.4401 C.ar      1 <0>        -0.0692
      6 C6         -0.0088    0.0070    0.4166 C.ar      1 <0>        -0.0821
      7 C7         -1.2783   -0.7275    0.2410 C.2       1 <0>         0.3635
      8 N1         -2.4012   -0.0312    0.2192 N.2       1 <0>        -0.5757
      9 C8         -3.5956   -0.5967    0.0665 C.2       1 <0>         0.5268
     10 O1         -4.6055    0.0796    0.0514 O.2       1 <0>        -0.4324
     11 C9         -3.6698   -2.1016   -0.0888 C.3       1 <0>        -0.0925
     12 H1         -4.3014   -2.4916    0.7093 H         1 <0>         0.1461
     13 C10        -2.3554   -2.8572   -0.0573 C.2       1 <0>         0.0722
     14 C11        -1.2197   -2.1260    0.1013 C.2       1 <0>        -0.1979
     15 C12        -2.3103   -4.3171   -0.1980 C.ar      1 <0>        -0.0678
     16 C13        -1.6906   -4.8973   -1.3127 C.ar      1 <0>        -0.0589
     17 C14        -1.6500   -6.2671   -1.4414 C.ar      1 <0>        -0.1018
     18 C15        -2.2218   -7.0791   -0.4694 C.ar      1 <0>         0.0518
     19 C16        -2.8415   -6.5084    0.6446 C.ar      1 <0>         0.0316
     20 C17        -2.8817   -5.1361    0.7848 C.ar      1 <0>        -0.0774
     21 O2         -3.3171   -7.5117    1.4393 O.3       1 <0>        -0.3056
     22 C18        -3.3446   -8.6833    0.6028 C.3       1 <0>         0.2126
     23 O3         -2.3110   -8.4360   -0.3682 O.3       1 <0>        -0.3044
     24 C19        -4.3468   -2.4012   -1.4013 C.2       1 <0>         0.3875
     25 N2         -3.6391   -2.5804   -2.4671 N.2       1 <0>        -0.4115
     26 O4         -4.2752   -2.8620   -3.7004 O.3       1 <0>        -0.4170
     27 N3         -5.7201   -2.4841   -1.4647 N.pl3     1 <0>        -0.8584
     28 Br1         3.9970    2.3244    0.9705 Br        1 <0>        -0.0380
     29 H2         -0.9512    1.9373    0.5461 H         1 <0>         0.1524
     30 H3          1.1679    3.1507    0.8330 H         1 <0>         0.1422
     31 H4          3.3249   -0.5274    0.6223 H         1 <0>         0.1429
     32 H5          1.2174   -1.7594    0.3295 H         1 <0>         0.1441
     33 H6         -0.2623   -2.6251    0.1247 H         1 <0>         0.1572
     34 H7         -1.2453   -4.2700   -2.0707 H         1 <0>         0.1478
     35 H8         -1.1722   -6.7127   -2.3014 H         1 <0>         0.1433
     36 H9         -3.3563   -4.6941    1.6483 H         1 <0>         0.1394
     37 H10        -3.1166   -9.5754    1.1860 H         1 <0>         0.1364
     38 H11        -4.3137   -8.7818    0.1137 H         1 <0>         0.0879
     39 H12        -3.6639   -2.9802   -4.4403 H         1 <0>         0.4011
     40 H13        -6.2515   -2.3496   -0.6644 H         1 <0>         0.4003
     41 H14        -6.1558   -2.6770   -2.3095 H         1 <0>         0.4117
@<TRIPOS>BOND
     1    1    6 ar
     2    1    2 ar
     3    1   29 1
     4    2    3 ar
     5    2   30 1
     6    3    4 ar
     7    3   28 1
     8    4    5 ar
     9    4   31 1
    10    5    6 ar
    11    5   32 1
    12    6    7 1
    13    7   14 1
    14    7    8 2
    15    8    9 1
    16    9   10 2
    17    9   11 1
    18   11   12 1
    19   11   13 1
    20   11   24 1
    21   13   14 2
    22   13   15 1
    23   14   33 1
    24   15   20 ar
    25   15   16 ar
    26   16   17 ar
    27   16   34 1
    28   17   18 ar
    29   17   35 1
    30   18   23 1
    31   18   19 ar
    32   19   20 ar
    33   19   21 1
    34   20   36 1
    35   21   22 1
    36   22   23 1
    37   22   37 1
    38   22   38 1
    39   24   25 2
    40   24   27 1
    41   25   26 1
    42   26   39 1
    43   27   40 1
    44   27   41 1
@<TRIPOS>MOLECULE
ZINC33958664
   44    46     0     0     0
SMALL
USER_CHARGES

@<TRIPOS>ATOM
      1 C1         -0.0166    1.3729    0.0096 C.ar      1 <0>        -0.1433
      2 C2          1.1718    2.0898    0.0021 C.ar      1 <0>        -0.0950
      3 C3          2.3849    1.4377   -0.0134 C.ar      1 <0>        -0.1295
      4 C4          2.4254    0.0468   -0.0212 C.ar      1 <0>         0.1015
      5 C5          1.2220   -0.6774   -0.0131 C.ar      1 <0>        -0.0749
      6 C6          0.0021   -0.0041    0.0020 C.ar      1 <0>        -0.0591
      7 C7          1.6041   -2.1006   -0.0250 C.2       1 <0>        -0.1450
      8 C8          2.9640   -2.1372   -0.0389 C.2       1 <0>         0.1081
      9 N1          3.4578   -0.8669   -0.0367 N.pl3     1 <0>        -0.4608
     10 C9          4.8815   -0.5218   -0.0499 C.3       1 <0>         0.0891
     11 C10         5.3554   -0.2904    1.3618 C.2       1 <0>         0.4935
     12 O1          4.5802   -0.4027    2.2878 O.2       1 <0>        -0.5171
     13 N2          6.6406    0.0414    1.5954 N.am      1 <0>        -0.8520
     14 C11         0.6929   -3.2563   -0.0223 C.2       1 <0>         0.1570
     15 N3         -0.5926   -3.0698   -0.0083 N.2       1 <0>        -0.2367
     16 N4         -1.4600   -4.1700   -0.0057 N.am      1 <0>        -0.5838
     17 C12        -2.7938   -3.9765    0.0088 C.2       1 <0>         0.5319
     18 O2         -3.2432   -2.8495    0.0197 O.2       1 <0>        -0.4756
     19 C13        -3.7268   -5.1599    0.0116 C.3       1 <0>         0.0482
     20 O3         -5.0796   -4.6998    0.0278 O.3       1 <0>        -0.2841
     21 C14        -6.0536   -5.6475    0.0323 C.ar      1 <0>         0.1360
     22 C15        -5.7141   -6.9929    0.0271 C.ar      1 <0>        -0.1967
     23 C16        -6.7055   -7.9547    0.0316 C.ar      1 <0>        -0.0716
     24 C17        -8.0359   -7.5781    0.0414 C.ar      1 <0>        -0.1271
     25 C18        -8.3775   -6.2376    0.0461 C.ar      1 <0>        -0.0513
     26 C19        -7.3885   -5.2715    0.0479 C.ar      1 <0>        -0.1195
     27 Br1       -10.1980   -5.7264    0.0582 Br        1 <0>        -0.0362
     28 H1         -0.9605    1.8974    0.0259 H         1 <0>         0.1247
     29 H2          1.1451    3.1694    0.0081 H         1 <0>         0.1255
     30 H3          3.3037    2.0053   -0.0198 H         1 <0>         0.1148
     31 H4         -0.9242   -0.5594    0.0082 H         1 <0>         0.1368
     32 H5          3.5618   -3.0366   -0.0500 H         1 <0>         0.1774
     33 H6          5.4494   -1.3391   -0.4944 H         1 <0>         0.1257
     34 H7          5.0301    0.3849   -0.6363 H         1 <0>         0.1210
     35 H8          7.2606    0.1312    0.8548 H         1 <0>         0.4036
     36 H9          6.9456    0.1903    2.5041 H         1 <0>         0.4075
     37 H10         1.0930   -4.2594   -0.0320 H         1 <0>         0.1208
     38 H11        -1.1007   -5.0709   -0.0144 H         1 <0>         0.3841
     39 H12        -3.5573   -5.7583   -0.8835 H         1 <0>         0.0995
     40 H13        -3.5394   -5.7683    0.8963 H         1 <0>         0.0995
     41 H14        -4.6752   -7.2879    0.0191 H         1 <0>         0.1349
     42 H15        -6.4412   -9.0019    0.0272 H         1 <0>         0.1374
     43 H16        -8.8095   -8.3317    0.0449 H         1 <0>         0.1366
     44 H17        -7.6552   -4.2249    0.0568 H         1 <0>         0.1445
@<TRIPOS>BOND
     1    1    6 ar
     2    1    2 ar
     3    1   28 1
     4    2    3 ar
     5    2   29 1
     6    3    4 ar
     7    3   30 1
     8    4    9 1
     9    4    5 ar
    10    5    6 ar
    11    5    7 1
    12    6   31 1
    13    7    8 2
    14    7   14 1
    15    8    9 1
    16    8   32 1
    17    9   10 1
    18   10   11 1
    19   10   33 1
    20   10   34 1
    21   11   12 2
    22   11   13 am
    23   13   35 1
    24   13   36 1
    25   14   15 2
    26   14   37 1
    27   15   16 1
    28   16   17 am
    29   16   38 1
    30   17   18 2
    31   17   19 1
    32   19   20 1
    33   19   39 1
    34   19   40 1
    35   20   21 1
    36   21   26 ar
    37   21   22 ar
    38   22   23 ar
    39   22   41 1
    40   23   24 ar
    41   23   42 1
    42   24   25 ar
    43   24   43 1
    44   25   26 ar
    45   25   27 1
    46   26   44 1
@<TRIPOS>MOLECULE
ZINC08856913
   70    74     0     0     0
SMALL
USER_CHARGES
cyclopentyl 2-methyl-5-oxo-7-(2-thienyl)-4-(2,3,4-trimethoxyphenyl)-4,6,7,8-tetrahydro-1H-quinoline-3-carboxylate
@<TRIPOS>ATOM
      1 C1         -6.0248    7.0920   -4.2414 C.3       1 <0>        -0.1392
      2 C2         -5.0654    7.0821   -3.0792 C.2       1 <0>         0.2586
      3 C3         -5.4118    7.6735   -1.9227 C.3       1 <0>        -0.1378
      4 C4         -4.4800    7.6887   -0.7467 C.3       1 <0>         0.0658
      5 H1         -5.0476    7.4908    0.1625 H         1 <0>         0.1146
      6 C5         -3.4038    6.6430   -0.8962 C.2       1 <0>        -0.2811
      7 C6         -3.1350    6.0981   -2.1014 C.2       1 <0>         0.1897
      8 N1         -3.8491    6.4720   -3.2081 N.2       1 <0>        -0.5352
      9 C7         -2.0468    5.0655   -2.2645 C.3       1 <0>        -0.0720
     10 C8         -1.9188    4.2496   -0.9736 C.3       1 <0>         0.0048
     11 H2         -2.8535    3.7250   -0.7749 H         1 <0>         0.1032
     12 C9         -1.6113    5.2086    0.1812 C.3       1 <0>        -0.1490
     13 C10        -2.6909    6.2537    0.2513 C.2       1 <0>         0.4032
     14 O1         -2.9513    6.7714    1.3194 O.2       1 <0>        -0.4574
     15 C11        -0.7985    3.2518   -1.1153 C.2       1 <0>        -0.1427
     16 C12        -0.8441    1.8996   -1.0324 C.2       1 <0>        -0.1477
     17 C13         0.3243    1.1785   -1.1925 C.2       1 <0>        -0.1574
     18 C14         1.4791    1.8441   -1.4388 C.2       1 <0>        -0.1688
     19 S1          0.9322    3.5436   -1.4423 S.3       1 <0>         0.0406
     20 C15        -3.8380    9.0482   -0.6431 C.ar      1 <0>        -0.1226
     21 C16        -2.8729    9.4273   -1.5573 C.ar      1 <0>        -0.0516
     22 C17        -2.2810   10.6731   -1.4667 C.ar      1 <0>        -0.2019
     23 C18        -2.6541   11.5482   -0.4576 C.ar      1 <0>         0.1292
     24 C19        -3.6240   11.1711    0.4633 C.ar      1 <0>         0.0421
     25 C20        -4.2204    9.9193    0.3656 C.ar      1 <0>         0.1416
     26 O2         -5.1743    9.5477    1.2608 O.3       1 <0>        -0.3321
     27 C21        -4.7221    9.0060    2.5034 C.3       1 <0>         0.0285
     28 O3         -3.9928   12.0269    1.4550 O.3       1 <0>        -0.3181
     29 C22        -5.0731   12.9191    1.1736 C.3       1 <0>         0.0386
     30 O4         -2.0713   12.7738   -0.3692 O.3       1 <0>        -0.3035
     31 C23        -1.0820   13.0939   -1.3495 C.3       1 <0>         0.0237
     32 C24        -6.6784    8.2934   -1.8125 C.2       1 <0>         0.5111
     33 O5         -7.5967    7.7086   -1.2689 O.2       1 <0>        -0.4900
     34 O6         -6.8685    9.5333   -2.3102 O.3       1 <0>        -0.3248
     35 C25        -8.1728   10.0983   -2.1638 C.3       1 <0>         0.0760
     36 C26        -9.0230    9.7963   -3.4151 C.3       1 <0>        -0.1438
     37 C27        -9.8652   11.0798   -3.6208 C.3       1 <0>        -0.1227
     38 C28        -8.8689   12.2059   -3.2489 C.3       1 <0>        -0.1232
     39 C29        -8.0748   11.6303   -2.0581 C.3       1 <0>        -0.1222
     40 H3         -5.8733    7.9969   -4.8299 H         1 <0>         0.1102
     41 H4         -5.8464    6.2175   -4.8671 H         1 <0>         0.1040
     42 H5         -7.0485    7.0688   -3.8678 H         1 <0>         0.0834
     43 H6         -5.9895    6.8583   -1.8797 H         1 <0>         0.1415
     44 H7         -1.1034    5.5681   -2.4776 H         1 <0>         0.1008
     45 H8         -2.2962    4.3975   -3.0888 H         1 <0>         0.1032
     46 H9         -1.5798    4.6971    1.0399 H         1 <0>         0.0935
     47 H10        -0.6485    5.6897    0.0090 H         1 <0>         0.1053
     48 H11        -1.7785    1.3935   -0.8401 H         1 <0>         0.1338
     49 H12         0.3163    0.1005   -1.1267 H         1 <0>         0.1350
     50 H13         2.4723    1.4489   -1.5926 H         1 <0>         0.1864
     51 H14        -2.5807    8.7484   -2.3448 H         1 <0>         0.1278
     52 H15        -1.5274   10.9655   -2.1829 H         1 <0>         0.1375
     53 H16        -5.5712    8.8794    3.1750 H         1 <0>         0.0898
     54 H17        -4.2503    8.0392    2.3281 H         1 <0>         0.0734
     55 H18        -3.9999    9.6862    2.9550 H         1 <0>         0.0510
     56 H19        -5.9675   12.3430    0.9361 H         1 <0>         0.0468
     57 H20        -5.2645   13.5444    2.0455 H         1 <0>         0.0929
     58 H21        -4.8112   13.5501    0.3242 H         1 <0>         0.0450
     59 H22        -0.2643   12.3756   -1.2885 H         1 <0>         0.0577
     60 H23        -1.5283   13.0528   -2.3430 H         1 <0>         0.0572
     61 H24        -0.6986   14.0973   -1.1646 H         1 <0>         0.1033
     62 H25        -8.6574    9.6930   -1.2755 H         1 <0>         0.0904
     63 H26        -8.3816    9.6186   -4.2783 H         1 <0>         0.0793
     64 H27        -9.6717    8.9387   -3.2376 H         1 <0>         0.0749
     65 H28       -10.7256   11.0887   -2.9515 H         1 <0>         0.0719
     66 H29       -10.1819   11.1718   -4.6597 H         1 <0>         0.0744
     67 H30        -9.4052   13.1065   -2.9501 H         1 <0>         0.0724
     68 H31        -8.2025   12.4172   -4.0852 H         1 <0>         0.0709
     69 H32        -8.5126   11.9685   -1.1190 H         1 <0>         0.0788
     70 H33        -7.0322   11.9428   -2.1176 H         1 <0>         0.0811
@<TRIPOS>BOND
     1    1    2 1
     2    1   40 1
     3    1   41 1
     4    1   42 1
     5    2    8 2
     6    2    3 1
     7    3    4 1
     8    3   32 1
     9    3   43 1
    10    4    5 1
    11    4    6 1
    12    4   20 1
    13    6   13 1
    14    6    7 2
    15    7    9 1
    16    7    8 1
    17    9   10 1
    18    9   44 1
    19    9   45 1
    20   10   11 1
    21   10   12 1
    22   10   15 1
    23   12   13 1
    24   12   46 1
    25   12   47 1
    26   13   14 2
    27   15   19 1
    28   15   16 2
    29   16   17 1
    30   16   48 1
    31   17   18 2
    32   17   49 1
    33   18   19 1
    34   18   50 1
    35   20   25 ar
    36   20   21 ar
    37   21   22 ar
    38   21   51 1
    39   22   23 ar
    40   22   52 1
    41   23   24 ar
    42   23   30 1
    43   24   25 ar
    44   24   28 1
    45   25   26 1
    46   26   27 1
    47   27   53 1
    48   27   54 1
    49   27   55 1
    50   28   29 1
    51   29   56 1
    52   29   57 1
    53   29   58 1
    54   30   31 1
    55   31   59 1
    56   31   60 1
    57   31   61 1
    58   32   33 2
    59   32   34 1
    60   34   35 1
    61   35   39 1
    62   35   36 1
    63   35   62 1
    64   36   37 1
    65   36   63 1
    66   36   64 1
    67   37   38 1
    68   37   65 1
    69   37   66 1
    70   38   39 1
    71   38   67 1
    72   38   68 1
    73   39   69 1
    74   39   70 1
@<TRIPOS>MOLECULE
ZINC09765629
   66    69     0     0     0
SMALL
USER_CHARGES
4-azepan-1-ylsulfonyl-N-[3-(2-ethoxyethyl)-4-methoxy-benzothiazol-2-ylidene]-benzamide
@<TRIPOS>ATOM
      1 C1         -7.4575    1.7647   -2.5464 C.3       1 <0>        -0.1514
      2 C2         -6.0621    2.3783   -2.6767 C.3       1 <0>         0.0601
      3 O1         -5.5176    2.6044   -1.3750 O.3       1 <0>        -0.3811
      4 C3         -4.2091    3.1787   -1.3839 C.3       1 <0>         0.0597
      5 C4         -3.7287    3.3754    0.0553 C.3       1 <0>         0.0999
      6 N1         -2.3872    3.9641    0.0461 N.pl3     1 <0>        -0.4842
      7 C5         -1.2721    3.1441    0.0311 C.ar      1 <0>         0.0882
      8 C6         -1.2228    1.7368    0.0174 C.ar      1 <0>         0.1410
      9 C7         -0.0126    1.0758    0.0080 C.ar      1 <0>        -0.1758
     10 C8          1.1842    1.7724    0.0003 C.ar      1 <0>        -0.0716
     11 C9          1.1622    3.1556    0.0079 C.ar      1 <0>        -0.0754
     12 C10        -0.0440    3.8178    0.0230 C.ar      1 <0>        -0.1505
     13 S1         -0.5175    5.5285    0.0367 S.3       1 <0>         0.1638
     14 C11        -2.2384    5.3155    0.0520 C.2       1 <0>         0.4245
     15 N2         -3.1844    6.2489    0.0667 N.2       1 <0>        -0.5965
     16 C12        -2.8471    7.5422    0.0707 C.2       1 <0>         0.5302
     17 O2         -1.6721    7.8656    0.0608 O.2       1 <0>        -0.5187
     18 C13        -3.9015    8.5825    0.0870 C.ar      1 <0>        -0.0573
     19 C14        -5.2471    8.2156    0.0925 C.ar      1 <0>        -0.0798
     20 C15        -6.2246    9.1892    0.1136 C.ar      1 <0>        -0.0359
     21 C16        -5.8723   10.5271    0.1182 C.ar      1 <0>        -0.6556
     22 C17        -4.5394   10.8974    0.1065 C.ar      1 <0>        -0.0332
     23 C18        -3.5527    9.9330    0.0912 C.ar      1 <0>        -0.0844
     24 S2         -7.1265   11.7646    0.1383 S.o2      1 <0>         2.6827
     25 O3         -8.2845   11.1601    0.6976 O.2       1 <0>        -0.9523
     26 O4         -6.5353   12.9331    0.6898 O.2       1 <0>        -0.9481
     27 N3         -7.4914   12.1176   -1.4380 N.pl3     1 <0>        -0.9866
     28 C19        -6.7569   13.1725   -2.0998 C.3       1 <0>         0.1233
     29 C20        -7.4653   14.5252   -1.8776 C.3       1 <0>        -0.1422
     30 C21        -8.7165   14.5787   -2.6491 C.3       1 <0>        -0.1192
     31 C22        -9.7525   13.5362   -2.2396 C.3       1 <0>        -0.1192
     32 C23        -9.4720   12.2418   -2.9623 C.3       1 <0>        -0.1251
     33 C24        -8.5570   11.3462   -2.1074 C.3       1 <0>         0.1099
     34 O5         -2.3798    1.0226    0.0186 O.3       1 <0>        -0.3126
     35 C25        -2.2631   -0.4016    0.0098 C.3       1 <0>         0.0231
     36 H1         -8.1046    2.4473   -1.9955 H         1 <0>         0.0649
     37 H2         -7.8728    1.5923   -3.5393 H         1 <0>         0.0726
     38 H3         -7.3894    0.8174   -2.0115 H         1 <0>         0.0635
     39 H4         -6.1302    3.3256   -3.2116 H         1 <0>         0.0493
     40 H5         -5.4150    1.6957   -3.2276 H         1 <0>         0.0478
     41 H6         -4.2388    4.1426   -1.8920 H         1 <0>         0.0535
     42 H7         -3.5236    2.5127   -1.9080 H         1 <0>         0.0518
     43 H8         -3.6990    2.4115    0.5634 H         1 <0>         0.1166
     44 H9         -4.4142    4.0414    0.5794 H         1 <0>         0.1098
     45 H10         0.0021   -0.0041    0.0020 H         1 <0>         0.1449
     46 H11         2.1247    1.2415   -0.0112 H         1 <0>         0.1460
     47 H12         2.0872    3.7130    0.0017 H         1 <0>         0.1442
     48 H13        -5.5234    7.1716    0.0845 H         1 <0>         0.1492
     49 H14        -7.2669    8.9064    0.1220 H         1 <0>         0.1456
     50 H15        -4.2706   11.9434    0.1098 H         1 <0>         0.1467
     51 H16        -2.5124   10.2232    0.0821 H         1 <0>         0.1458
     52 H17        -5.7482   13.2247   -1.6901 H         1 <0>         0.0790
     53 H18        -6.7039   12.9627   -3.1682 H         1 <0>         0.0837
     54 H19        -6.8091   15.3345   -2.1979 H         1 <0>         0.0781
     55 H20        -7.6896   14.6442   -0.8176 H         1 <0>         0.0716
     56 H21        -8.4795   14.4356   -3.7033 H         1 <0>         0.0605
     57 H22        -9.1547   15.5691   -2.5255 H         1 <0>         0.0591
     58 H23       -10.7490   13.8910   -2.5025 H         1 <0>         0.0656
     59 H24        -9.6973   13.3713   -1.1635 H         1 <0>         0.0634
     60 H25        -8.9823   12.4569   -3.9120 H         1 <0>         0.0694
     61 H26       -10.4124   11.7235   -3.1497 H         1 <0>         0.0776
     62 H27        -8.0993   10.5932   -2.7489 H         1 <0>         0.0673
     63 H28        -9.1608   10.8460   -1.3502 H         1 <0>         0.0949
     64 H29        -1.7254   -0.7166   -0.8845 H         1 <0>         0.0602
     65 H30        -1.7172   -0.7269    0.8954 H         1 <0>         0.0613
     66 H31        -3.2576   -0.8477    0.0118 H         1 <0>         0.1062
@<TRIPOS>BOND
     1    1    2 1
     2    1   36 1
     3    1   37 1
     4    1   38 1
     5    2    3 1
     6    2   39 1
     7    2   40 1
     8    3    4 1
     9    4    5 1
    10    4   41 1
    11    4   42 1
    12    5    6 1
    13    5   43 1
    14    5   44 1
    15    6   14 1
    16    6    7 1
    17    7   12 ar
    18    7    8 ar
    19    8    9 ar
    20    8   34 1
    21    9   10 ar
    22    9   45 1
    23   10   11 ar
    24   10   46 1
    25   11   12 ar
    26   11   47 1
    27   12   13 1
    28   13   14 1
    29   14   15 2
    30   15   16 1
    31   16   17 2
    32   16   18 1
    33   18   23 ar
    34   18   19 ar
    35   19   20 ar
    36   19   48 1
    37   20   21 ar
    38   20   49 1
    39   21   22 ar
    40   21   24 1
    41   22   23 ar
    42   22   50 1
    43   23   51 1
    44   24   25 2
    45   24   26 2
    46   24   27 1
    47   27   33 1
    48   27   28 1
    49   28   29 1
    50   28   52 1
    51   28   53 1
    52   29   30 1
    53   29   54 1
    54   29   55 1
    55   30   31 1
    56   30   56 1
    57   30   57 1
    58   31   32 1
    59   31   58 1
    60   31   59 1
    61   32   33 1
    62   32   60 1
    63   32   61 1
    64   33   62 1
    65   33   63 1
    66   34   35 1
    67   35   64 1
    68   35   65 1
    69   35   66 1
@<TRIPOS>MOLECULE
ZINC09624822
   60    62     0     0     0
SMALL
USER_CHARGES
ethyl 3-[(2Z)-4-chloro-2-[4-(diethylsulfamoyl)benzoyl]imino-1,3-benzothiazol-3-yl]propanoate
@<TRIPOS>ATOM
      1 C1         -8.2700   -2.7674    5.9885 C.3       1 <0>        -0.1753
      2 C2         -7.6468   -2.3948    4.6417 C.3       1 <0>         0.1191
      3 N1         -8.4323   -1.3263    4.0191 N.pl3     1 <0>        -0.9948
      4 C3         -9.6156   -1.6568    3.2212 C.3       1 <0>         0.1078
      5 C4         -9.1901   -1.9792    1.7873 C.3       1 <0>        -0.1788
      6 S1         -7.9826    0.2551    4.2173 S.o2      1 <0>         2.6861
      7 O1         -7.2197    0.3133    5.4148 O.2       1 <0>        -0.9485
      8 O2         -9.1522    1.0377    4.0204 O.2       1 <0>        -0.9513
      9 C5         -6.8826    0.6530    2.8996 C.ar      1 <0>        -0.6541
     10 C6         -7.3835    1.1575    1.7127 C.ar      1 <0>        -0.0317
     11 C7         -6.5273    1.4705    0.6770 C.ar      1 <0>        -0.0832
     12 C8         -5.1542    1.2774    0.8285 C.ar      1 <0>        -0.0588
     13 C9         -4.6559    0.7635    2.0255 C.ar      1 <0>        -0.0813
     14 C10        -5.5217    0.4592    3.0559 C.ar      1 <0>        -0.0336
     15 C11        -4.2297    1.6110   -0.2797 C.2       1 <0>         0.5283
     16 O3         -4.6682    2.0551   -1.3264 O.2       1 <0>        -0.5141
     17 N2         -2.9143    1.4248   -0.1316 N.2       1 <0>        -0.5979
     18 C12        -2.0849    1.7241   -1.1257 C.2       1 <0>         0.4223
     19 N3         -0.7305    1.6037   -1.1594 N.pl3     1 <0>        -0.4926
     20 C13        -0.0308    1.9643   -2.2964 C.ar      1 <0>         0.1309
     21 C14        -0.8224    2.4461   -3.3491 C.ar      1 <0>        -0.1789
     22 S2         -2.4689    2.3649   -2.6907 S.3       1 <0>         0.1788
     23 C15        -0.2879    2.8477   -4.5502 C.ar      1 <0>        -0.0301
     24 C16         1.0806    2.7811   -4.7460 C.ar      1 <0>        -0.1018
     25 C17         1.8879    2.3097   -3.7248 C.ar      1 <0>        -0.0691
     26 C18         1.3543    1.9073   -2.5220 C.ar      1 <0>        -0.0373
     27 Cl1         2.4047    1.3234   -1.2693 Cl        1 <0>        -0.0384
     28 C19        -0.0127    1.0858    0.0080 C.3       1 <0>         0.0898
     29 C20        -0.8539    1.3123    1.2658 C.3       1 <0>        -0.1360
     30 C21        -0.0560    0.9174    2.4816 C.2       1 <0>         0.4678
     31 O4          1.0700    0.4978    2.3552 O.2       1 <0>        -0.5103
     32 O5         -0.5962    1.0318    3.7051 O.3       1 <0>        -0.3532
     33 C22         0.2301    0.6328    4.8304 C.3       1 <0>         0.0620
     34 C23        -0.5494    0.8325    6.1317 C.3       1 <0>        -0.1548
     35 H1         -8.2758   -1.8938    6.6402 H         1 <0>         0.0642
     36 H2         -9.2925   -3.1116    5.8329 H         1 <0>         0.0603
     37 H3         -7.6856   -3.5624    6.4517 H         1 <0>         0.0701
     38 H4         -7.6410   -3.2684    3.9899 H         1 <0>         0.0817
     39 H5         -6.6243   -2.0507    4.7973 H         1 <0>         0.0816
     40 H6        -10.1161   -2.5225    3.6550 H         1 <0>         0.0871
     41 H7        -10.2987   -0.8074    3.2152 H         1 <0>         0.0948
     42 H8         -8.5071   -2.8286    1.7933 H         1 <0>         0.0615
     43 H9        -10.0706   -2.2251    1.1936 H         1 <0>         0.0719
     44 H10        -8.6896   -1.1135    1.3535 H         1 <0>         0.0562
     45 H11        -8.4469    1.3062    1.5965 H         1 <0>         0.1468
     46 H12        -6.9195    1.8640   -0.2492 H         1 <0>         0.1458
     47 H13        -3.5941    0.6075    2.1471 H         1 <0>         0.1470
     48 H14        -5.1367    0.0650    3.9847 H         1 <0>         0.1458
     49 H15        -0.9320    3.2127   -5.3366 H         1 <0>         0.1500
     50 H16         1.5138    3.0937   -5.6846 H         1 <0>         0.1540
     51 H17         2.9560    2.2564   -3.8752 H         1 <0>         0.1515
     52 H18         0.1683    0.0187   -0.1207 H         1 <0>         0.0956
     53 H19         0.9397    1.6063    0.1093 H         1 <0>         0.1197
     54 H20        -1.1260    2.3655    1.3361 H         1 <0>         0.1112
     55 H21        -1.7583    0.7062    1.2120 H         1 <0>         0.1550
     56 H22         0.5018   -0.4178    4.7273 H         1 <0>         0.0715
     57 H23         1.1341    1.2415    4.8513 H         1 <0>         0.0705
     58 H24        -0.8211    1.8831    6.2349 H         1 <0>         0.0680
     59 H25        -1.4534    0.2238    6.1108 H         1 <0>         0.0693
     60 H26         0.0708    0.5330    6.9765 H         1 <0>         0.0816
@<TRIPOS>BOND
     1    1    2 1
     2    1   35 1
     3    1   36 1
     4    1   37 1
     5    2    3 1
     6    2   38 1
     7    2   39 1
     8    3    4 1
     9    3    6 1
    10    4    5 1
    11    4   40 1
    12    4   41 1
    13    5   42 1
    14    5   43 1
    15    5   44 1
    16    6    7 2
    17    6    8 2
    18    6    9 1
    19    9   14 ar
    20    9   10 ar
    21   10   11 ar
    22   10   45 1
    23   11   12 ar
    24   11   46 1
    25   12   13 ar
    26   12   15 1
    27   13   14 ar
    28   13   47 1
    29   14   48 1
    30   15   16 2
    31   15   17 1
    32   17   18 2
    33   18   22 1
    34   18   19 1
    35   19   20 1
    36   19   28 1
    37   20   26 ar
    38   20   21 ar
    39   21   22 1
    40   21   23 ar
    41   23   24 ar
    42   23   49 1
    43   24   25 ar
    44   24   50 1
    45   25   26 ar
    46   25   51 1
    47   26   27 1
    48   28   29 1
    49   28   52 1
    50   28   53 1
    51   29   30 1
    52   29   54 1
    53   29   55 1
    54   30   31 2
    55   30   32 1
    56   32   33 1
    57   33   34 1
    58   33   56 1
    59   33   57 1
    60   34   58 1
    61   34   59 1
    62   34   60 1
@<TRIPOS>MOLECULE
ZINC00732968
   71    73     0     0     0
SMALL
USER_CHARGES
ethyl 1-[2-[4-chloro-6-[(3R)-4-(2,2-dimethylpropanoyl)-3-methyl-piperazin-1-yl]pyrimidin-2-yl]sulfanylacetyl]piperidine-4-carboxylate
@<TRIPOS>ATOM
      1 C1         -1.2470   -2.8167    7.7892 C.3       1 <0>        -0.1554
      2 C2         -2.3680   -1.9312    7.2413 C.3       1 <0>         0.0592
      3 O1         -1.8036   -0.9281    6.3562 O.3       1 <0>        -0.3571
      4 C3         -2.6605   -0.0651    5.7882 C.2       1 <0>         0.4639
      5 O2         -3.8431   -0.1452    6.0229 O.2       1 <0>        -0.5033
      6 C4         -2.1477    1.0038    4.8579 C.3       1 <0>        -0.0798
      7 C5         -3.3214    1.8459    4.3524 C.3       1 <0>        -0.1214
      8 C6         -2.7928    2.9526    3.4345 C.3       1 <0>         0.1114
      9 N1         -1.9874    2.3393    2.3697 N.am      1 <0>        -0.6074
     10 C7         -0.8924    1.4341    2.7444 C.3       1 <0>         0.1031
     11 C8         -1.4388    0.3488    3.6702 C.3       1 <0>        -0.1288
     12 C9         -2.2516    2.5977    1.0736 C.2       1 <0>         0.5364
     13 O3         -3.1615    3.3427    0.7770 O.2       1 <0>        -0.5199
     14 C10        -1.4165    1.9608   -0.0072 C.3       1 <0>        -0.1636
     15 S1         -2.0144    2.5000   -1.6283 S.3       1 <0>         0.1214
     16 C11        -0.8928    1.6307   -2.6727 C.ar      1 <0>         0.3121
     17 N2         -1.0031    1.7583   -3.9872 N.ar      1 <0>        -0.4777
     18 C12        -0.1696    1.1195   -4.8022 C.ar      1 <0>         0.3939
     19 C13         0.8200    0.3014   -4.2544 C.ar      1 <0>        -0.2538
     20 C14         0.8978    0.1913   -2.8779 C.ar      1 <0>         0.2499
     21 N3          0.0364    0.8612   -2.1244 N.ar      1 <0>        -0.5322
     22 Cl1         2.1099   -0.8122   -2.1447 Cl        1 <0>        -0.0037
     23 N4         -0.2846    1.2596   -6.1758 N.pl3     1 <0>        -0.4933
     24 C15        -0.4503   -0.0471   -6.8261 C.3       1 <0>         0.0425
     25 C16        -0.7542    0.1613   -8.3136 C.3       1 <0>         0.0867
     26 N5          0.2963    1.0142   -8.8901 N.am      1 <0>        -0.6120
     27 C17         0.6149    2.2799   -8.2122 C.3       1 <0>         0.1520
     28 H1         -0.2400    2.9593   -8.3446 H         1 <0>         0.0873
     29 C18         0.8649    1.9881   -6.7287 C.3       1 <0>         0.0546
     30 C19         1.8707    2.8940   -8.8340 C.3       1 <0>        -0.1527
     31 C20         0.9492    0.6458  -10.0101 C.2       1 <0>         0.5287
     32 O4          1.7404    1.4050  -10.5282 O.2       1 <0>        -0.5251
     33 C21         0.6963   -0.7095  -10.6186 C.3       1 <0>        -0.0878
     34 C22         1.5803   -0.8866  -11.8546 C.3       1 <0>        -0.1287
     35 C23         1.0266   -1.7978   -9.5951 C.3       1 <0>        -0.1576
     36 C24        -0.7750   -0.8200  -11.0237 C.3       1 <0>        -0.1611
     37 H2         -1.6746   -3.5766    8.4597 H         1 <0>         0.0821
     38 H3         -0.5298   -2.1969    8.3474 H         1 <0>         0.0681
     39 H4         -0.7307   -3.3131    6.9544 H         1 <0>         0.0678
     40 H5         -3.0852   -2.5510    6.6831 H         1 <0>         0.0712
     41 H6         -2.8844   -1.4348    8.0761 H         1 <0>         0.0716
     42 H7         -1.4410    1.6413    5.4094 H         1 <0>         0.1148
     43 H8         -4.0183    1.2049    3.7925 H         1 <0>         0.0800
     44 H9         -3.8449    2.2965    5.2085 H         1 <0>         0.0905
     45 H10        -3.6396    3.4991    2.9938 H         1 <0>         0.1048
     46 H11        -2.1718    3.6478    4.0184 H         1 <0>         0.0771
     47 H12        -0.4724    0.9721    1.8388 H         1 <0>         0.0964
     48 H13        -0.1072    2.0035    3.2634 H         1 <0>         0.0826
     49 H14        -0.6091   -0.2738    4.0363 H         1 <0>         0.0962
     50 H15        -2.1530   -0.2798    3.1181 H         1 <0>         0.0768
     51 H16        -0.3659    2.2630    0.1152 H         1 <0>         0.1298
     52 H17        -1.4941    0.8660    0.0667 H         1 <0>         0.1290
     53 H18         1.5095   -0.2333   -4.8910 H         1 <0>         0.1556
     54 H19         0.4760   -0.6305   -6.7181 H         1 <0>         0.0544
     55 H20        -1.2824   -0.5892   -6.3530 H         1 <0>         0.0964
     56 H21        -0.7693   -0.8126   -8.8247 H         1 <0>         0.1258
     57 H22        -1.7346    0.6479   -8.4229 H         1 <0>         0.0860
     58 H23         0.9951    2.9351   -6.1844 H         1 <0>         0.0952
     59 H24         1.7727    1.3761   -6.6220 H         1 <0>         0.0538
     60 H25         2.1066    3.8403   -8.3252 H         1 <0>         0.0510
     61 H26         1.6942    3.0863   -9.9026 H         1 <0>         0.1022
     62 H27         2.7141    2.1969   -8.7213 H         1 <0>         0.0584
     63 H28         1.3957   -1.8759  -12.2987 H         1 <0>         0.0628
     64 H29         2.6380   -0.8071  -11.5633 H         1 <0>         0.0621
     65 H30         1.3428   -0.1042  -12.5904 H         1 <0>         0.0639
     66 H31         0.8420   -2.7870  -10.0393 H         1 <0>         0.0723
     67 H32         0.3909   -1.6705   -8.7064 H         1 <0>         0.0696
     68 H33         2.0843   -1.7183   -9.3038 H         1 <0>         0.0621
     69 H34        -0.9597   -1.8092  -11.4679 H         1 <0>         0.0716
     70 H35        -1.0125   -0.0376  -11.7595 H         1 <0>         0.0644
     71 H36        -1.4105   -0.6926  -10.1350 H         1 <0>         0.0732
@<TRIPOS>BOND
     1    1    2 1
     2    1   37 1
     3    1   38 1
     4    1   39 1
     5    2    3 1
     6    2   40 1
     7    2   41 1
     8    3    4 1
     9    4    5 2
    10    4    6 1
    11    6   11 1
    12    6    7 1
    13    6   42 1
    14    7    8 1
    15    7   43 1
    16    7   44 1
    17    8    9 1
    18    8   45 1
    19    8   46 1
    20    9   10 1
    21    9   12 am
    22   10   11 1
    23   10   47 1
    24   10   48 1
    25   11   49 1
    26   11   50 1
    27   12   13 2
    28   12   14 1
    29   14   15 1
    30   14   51 1
    31   14   52 1
    32   15   16 1
    33   16   21 ar
    34   16   17 ar
    35   17   18 ar
    36   18   19 ar
    37   18   23 1
    38   19   20 ar
    39   19   53 1
    40   20   21 ar
    41   20   22 1
    42   23   29 1
    43   23   24 1
    44   24   25 1
    45   24   54 1
    46   24   55 1
    47   25   26 1
    48   25   56 1
    49   25   57 1
    50   26   27 1
    51   26   31 am
    52   27   28 1
    53   27   29 1
    54   27   30 1
    55   29   58 1
    56   29   59 1
    57   30   60 1
    58   30   61 1
    59   30   62 1
    60   31   32 2
    61   31   33 1
    62   33   34 1
    63   33   35 1
    64   33   36 1
    65   34   63 1
    66   34   64 1
    67   34   65 1
    68   35   66 1
    69   35   67 1
    70   35   68 1
    71   36   69 1
    72   36   70 1
    73   36   71 1
@<TRIPOS>MOLECULE
ZINC36084874
   70    75     0     0     0
SMALL
USER_CHARGES

@<TRIPOS>ATOM
      1 C1         -0.0213    1.3660    0.1407 C.ar      1 <0>        -0.1170
      2 C2          1.1578    2.0607    0.3427 C.ar      1 <0>        -0.1176
      3 C3          2.3672    1.3966    0.3103 C.ar      1 <0>        -0.1089
      4 C4          2.3991    0.0234    0.0736 C.ar      1 <0>        -0.0500
      5 C5          1.2079   -0.6713   -0.1292 C.ar      1 <0>        -0.1096
      6 C6          0.0043    0.0031   -0.0946 C.ar      1 <0>        -0.1182
      7 C7          3.6956   -0.6957    0.0371 C.ar      1 <0>        -0.0340
      8 C8          4.8855    0.0011    0.2456 C.ar      1 <0>        -0.1118
      9 C9          6.0897   -0.6667    0.2123 C.ar      1 <0>        -0.0792
     10 C10         6.1190   -2.0400   -0.0301 C.ar      1 <0>        -0.0371
     11 C11         4.9289   -2.7368   -0.2387 C.ar      1 <0>        -0.1002
     12 C12         3.7244   -2.0697   -0.2000 C.ar      1 <0>        -0.1112
     13 C13         7.4150   -2.7588   -0.0665 C.ar      1 <0>         0.0587
     14 C14         7.4472   -4.1357   -0.3153 C.ar      1 <0>        -0.0671
     15 C15         8.6802   -4.7617   -0.3393 C.ar      1 <0>        -0.1767
     16 C16         9.8159   -3.9818   -0.1141 C.ar      1 <0>         0.3421
     17 N1          9.6906   -2.6822    0.1137 N.ar      1 <0>        -0.2976
     18 N2          8.5478   -2.0981    0.1311 N.ar      1 <0>        -0.1899
     19 N3         11.0762   -4.5674   -0.1284 N.pl3     1 <0>        -0.5995
     20 C17        12.2877   -3.7355   -0.1176 C.3       1 <0>         0.1106
     21 C18        13.1644   -4.1618    1.0665 C.3       1 <0>         0.0970
     22 N4         13.3095   -5.6240    1.0409 N.am      1 <0>        -0.6128
     23 C19        12.0980   -6.4559    1.0301 C.3       1 <0>         0.0891
     24 C20        11.2213   -6.0297   -0.1483 C.3       1 <0>         0.1057
     25 C21        14.5317   -6.1920    1.0271 C.2       1 <0>         0.4940
     26 O1         15.5243   -5.4951    1.0358 O.2       1 <0>        -0.5166
     27 C22        14.6649   -7.6928    1.0009 C.3       1 <0>         0.0915
     28 N5         16.0839   -8.0570    0.9899 N.am      1 <0>        -0.5906
     29 C23        16.7975   -8.2609    2.2530 C.3       1 <0>         0.2028
     30 C24        16.6889   -9.7068    2.6636 C.2       1 <0>        -0.0450
     31 C25        17.5486  -10.6861    2.3298 C.2       1 <0>        -0.1776
     32 C26        17.0666  -11.8746    2.9248 C.2       1 <0>        -0.2160
     33 C27        15.9413  -11.5506    3.5866 C.2       1 <0>        -0.0353
     34 O2         15.7205  -10.2351    3.4297 O.3       1 <0>        -0.1773
     35 C28        16.7327   -8.2045   -0.1821 C.2       1 <0>         0.5575
     36 O3         17.9074   -8.5060   -0.1912 O.2       1 <0>        -0.5225
     37 C29        15.9986   -7.9947   -1.4814 C.3       1 <0>        -0.1991
     38 C30        15.7543   -9.2226   -2.3610 C.3       1 <0>        -0.1508
     39 C31        16.7906   -8.1769   -2.7777 C.3       1 <0>        -0.1424
     40 H1         -0.9657    1.8890    0.1713 H         1 <0>         0.1234
     41 H2          1.1319    3.1247    0.5257 H         1 <0>         0.1252
     42 H3          3.2871    1.9400    0.4678 H         1 <0>         0.1265
     43 H4          1.2267   -1.7353   -0.3134 H         1 <0>         0.1257
     44 H5         -0.9193   -0.5342   -0.2513 H         1 <0>         0.1249
     45 H6          4.8628    1.0645    0.4330 H         1 <0>         0.1302
     46 H7          7.0112   -0.1270    0.3734 H         1 <0>         0.1381
     47 H8          4.9514   -3.8001   -0.4264 H         1 <0>         0.1277
     48 H9          2.8026   -2.6099   -0.3574 H         1 <0>         0.1300
     49 H10         6.5371   -4.6924   -0.4829 H         1 <0>         0.1517
     50 H11         8.7619   -5.8222   -0.5264 H         1 <0>         0.1497
     51 H12        12.8366   -3.8766   -1.0486 H         1 <0>         0.0716
     52 H13        12.0105   -2.6870   -0.0087 H         1 <0>         0.1115
     53 H14        14.1458   -3.6953    0.9816 H         1 <0>         0.1071
     54 H15        12.6914   -3.8574    2.0001 H         1 <0>         0.0759
     55 H16        12.3752   -7.5045    0.9212 H         1 <0>         0.0996
     56 H17        11.5491   -6.3149    1.9611 H         1 <0>         0.0810
     57 H18        10.2401   -6.4959   -0.0597 H         1 <0>         0.0987
     58 H19        11.6926   -6.3379   -1.0816 H         1 <0>         0.0786
     59 H20        14.1881   -8.1154    1.8853 H         1 <0>         0.1137
     60 H21        14.1823   -8.0848    0.1056 H         1 <0>         0.1140
     61 H22        17.8474   -7.9978    2.1237 H         1 <0>         0.1197
     62 H23        16.3572   -7.6299    3.0250 H         1 <0>         0.0945
     63 H24        18.4363  -10.5841    1.7232 H         1 <0>         0.1506
     64 H25        17.5157  -12.8547    2.8600 H         1 <0>         0.1490
     65 H26        15.3224  -12.2319    4.1516 H         1 <0>         0.2036
     66 H27        15.2276   -7.2243   -1.4667 H         1 <0>         0.1185
     67 H28        16.1246  -10.1821   -1.9999 H         1 <0>         0.1012
     68 H29        14.8224   -9.2602   -2.9251 H         1 <0>         0.1059
     69 H30        16.5404   -7.5267   -3.6160 H         1 <0>         0.1049
     70 H31        17.8427   -8.4485   -2.6908 H         1 <0>         0.1101
@<TRIPOS>BOND
     1    1    6 ar
     2    1    2 ar
     3    1   40 1
     4    2    3 ar
     5    2   41 1
     6    3    4 ar
     7    3   42 1
     8    4    5 ar
     9    4    7 1
    10    5    6 ar
    11    5   43 1
    12    6   44 1
    13    7   12 ar
    14    7    8 ar
    15    8    9 ar
    16    8   45 1
    17    9   10 ar
    18    9   46 1
    19   10   11 ar
    20   10   13 1
    21   11   12 ar
    22   11   47 1
    23   12   48 1
    24   13   18 ar
    25   13   14 ar
    26   14   15 ar
    27   14   49 1
    28   15   16 ar
    29   15   50 1
    30   16   17 ar
    31   16   19 1
    32   17   18 ar
    33   19   24 1
    34   19   20 1
    35   20   21 1
    36   20   51 1
    37   20   52 1
    38   21   22 1
    39   21   53 1
    40   21   54 1
    41   22   23 1
    42   22   25 am
    43   23   24 1
    44   23   55 1
    45   23   56 1
    46   24   57 1
    47   24   58 1
    48   25   26 2
    49   25   27 1
    50   27   28 1
    51   27   59 1
    52   27   60 1
    53   28   29 1
    54   28   35 am
    55   29   30 1
    56   29   61 1
    57   29   62 1
    58   30   34 1
    59   30   31 2
    60   31   32 1
    61   31   63 1
    62   32   33 2
    63   32   64 1
    64   33   34 1
    65   33   65 1
    66   35   36 2
    67   35   37 1
    68   37   39 1
    69   37   38 1
    70   37   66 1
    71   38   39 1
    72   38   67 1
    73   38   68 1
    74   39   69 1
    75   39   70 1
@<TRIPOS>MOLECULE
ZINC02201915
   58    61     0     0     0
SMALL
USER_CHARGES
1-[3-[2-cyano-2-[(1,1-dioxothiolan-3-yl)carbamoyl]vinyl]-2-oxo-1,5-diazabicyclo[4.4.0]deca-3,5,7,9-tetraen-4-yl]piperidine-4-carboxamide
@<TRIPOS>ATOM
      1 C1         -5.0217    4.8662   -0.4446 C.2       1 <0>        -0.0145
      2 C2         -3.8575    5.6445   -0.4017 C.2       1 <0>        -0.1662
      3 C3         -2.6531    5.0537   -0.2309 C.2       1 <0>         0.1088
      4 N1         -2.5520    3.7012   -0.0964 N.am      1 <0>        -0.4299
      5 C4         -3.6697    2.9157   -0.1337 C.2       1 <0>         0.4267
      6 C5         -4.9305    3.5119   -0.3118 C.2       1 <0>        -0.1444
      7 N2         -3.5924    1.5900   -0.0049 N.2       1 <0>        -0.5736
      8 C6         -2.4328    0.9731    0.1609 C.2       1 <0>         0.4408
      9 C7         -1.2375    1.7355    0.2129 C.2       1 <0>        -0.3622
     10 C8         -1.3333    3.1446    0.0738 C.2       1 <0>         0.5358
     11 O1         -0.3337    3.8399    0.1079 O.2       1 <0>        -0.5088
     12 C9          0.0090    1.1113    0.3916 C.2       1 <0>         0.1315
     13 C10         0.2306    0.3088    1.5029 C.2       1 <0>        -0.1370
     14 C11        -0.7750    0.1952    2.5161 C.1       1 <0>         0.2597
     15 N3         -1.5727    0.1051    3.3198 N.1       1 <0>        -0.4123
     16 C12         1.4944   -0.4225    1.6389 C.2       1 <0>         0.5800
     17 O2          2.3491   -0.3260    0.7777 O.2       1 <0>        -0.5260
     18 N4          1.7095   -1.2015    2.7175 N.am      1 <0>        -0.7147
     19 C13         2.9720   -1.9320    2.8534 C.3       1 <0>         0.1430
     20 H1          3.7855   -1.3430    2.4297 H         1 <0>         0.1195
     21 C14         2.8727   -3.2811    2.1223 C.3       1 <0>        -0.1408
     22 C15         4.0621   -4.1870    2.5225 C.3       1 <0>        -0.5731
     23 S1          4.4683   -3.5956    4.2159 S.o2      1 <0>         2.3773
     24 O3          5.7835   -3.0574    4.2146 O.2       1 <0>        -0.9276
     25 O4          4.1278   -4.6072    5.1540 O.2       1 <0>        -0.9308
     26 C16         3.2559   -2.2153    4.3562 C.3       1 <0>        -0.5979
     27 N5         -2.3877   -0.3962    0.2859 N.pl3     1 <0>        -0.4709
     28 C17        -1.6717   -1.0044   -0.8427 C.3       1 <0>         0.0597
     29 C18        -1.5143   -2.5069   -0.5987 C.3       1 <0>        -0.1078
     30 C19        -2.8991   -3.1422   -0.4467 C.3       1 <0>        -0.1127
     31 C20        -3.6423   -2.4582    0.7041 C.3       1 <0>        -0.1002
     32 C21        -3.7380   -0.9570    0.4222 C.3       1 <0>         0.0653
     33 C22        -2.7491   -4.6114   -0.1466 C.2       1 <0>         0.5223
     34 O5         -3.1925   -5.0678    0.8859 O.2       1 <0>        -0.5362
     35 N6         -2.1221   -5.4181   -1.0255 N.am      1 <0>        -0.8560
     36 H2         -5.9848    5.3354   -0.5815 H         1 <0>         0.1591
     37 H3         -3.9219    6.7175   -0.5061 H         1 <0>         0.1658
     38 H4         -1.7606    5.6611   -0.1997 H         1 <0>         0.1880
     39 H5         -5.8208    2.9014   -0.3435 H         1 <0>         0.1706
     40 H6          0.7959    1.2594   -0.3331 H         1 <0>         0.1543
     41 H7          1.0283   -1.2784    3.4038 H         1 <0>         0.4063
     42 H8          1.9375   -3.7713    2.3927 H         1 <0>         0.0902
     43 H9          2.8931   -3.1117    1.0457 H         1 <0>         0.1051
     44 H10         4.9055   -4.0378    1.8483 H         1 <0>         0.1441
     45 H11         3.7643   -5.2354    2.5403 H         1 <0>         0.1451
     46 H12         3.7009   -1.3478    4.8437 H         1 <0>         0.1502
     47 H13         2.3521   -2.5357    4.8746 H         1 <0>         0.1454
     48 H14        -2.2366   -0.8428   -1.7608 H         1 <0>         0.0610
     49 H15        -0.6869   -0.5467   -0.9371 H         1 <0>         0.0956
     50 H16        -0.9375   -2.6693    0.3119 H         1 <0>         0.0824
     51 H17        -0.9963   -2.9611   -1.4433 H         1 <0>         0.0849
     52 H18        -3.4627   -3.0149   -1.3710 H         1 <0>         0.1006
     53 H19        -3.0991   -2.6197    1.6351 H         1 <0>         0.0815
     54 H20        -4.6450   -2.8769    0.7904 H         1 <0>         0.0842
     55 H21        -4.2541   -0.4649    1.2466 H         1 <0>         0.0922
     56 H22        -4.2932   -0.7958   -0.5018 H         1 <0>         0.0625
     57 H23        -1.7675   -5.0531   -1.8513 H         1 <0>         0.4011
     58 H24        -2.0256   -6.3638   -0.8324 H         1 <0>         0.4029
@<TRIPOS>BOND
     1    1    6 2
     2    1    2 1
     3    1   36 1
     4    2    3 2
     5    2   37 1
     6    3    4 1
     7    3   38 1
     8    4   10 am
     9    4    5 1
    10    5    6 1
    11    5    7 2
    12    6   39 1
    13    7    8 1
    14    8    9 2
    15    8   27 1
    16    9   10 1
    17    9   12 1
    18   10   11 2
    19   12   13 2
    20   12   40 1
    21   13   14 1
    22   13   16 1
    23   14   15 3
    24   16   17 2
    25   16   18 am
    26   18   19 1
    27   18   41 1
    28   19   20 1
    29   19   26 1
    30   19   21 1
    31   21   22 1
    32   21   42 1
    33   21   43 1
    34   22   23 1
    35   22   44 1
    36   22   45 1
    37   23   24 2
    38   23   25 2
    39   23   26 1
    40   26   46 1
    41   26   47 1
    42   27   32 1
    43   27   28 1
    44   28   29 1
    45   28   48 1
    46   28   49 1
    47   29   30 1
    48   29   50 1
    49   29   51 1
    50   30   31 1
    51   30   33 1
    52   30   52 1
    53   31   32 1
    54   31   53 1
    55   31   54 1
    56   32   55 1
    57   32   56 1
    58   33   34 2
    59   33   35 am
    60   35   57 1
    61   35   58 1
@<TRIPOS>MOLECULE
ZINC09102726
   50    53     0     0     0
SMALL
USER_CHARGES
N-[2-benzo[1,3]dioxol-5-ylsulfonyl-2-(2-thienyl)ethyl]-4-hydroxy-1,1-dioxo-thiolane-3-sulfonamide
@<TRIPOS>ATOM
      1 C1          4.0561    1.8604   -1.7174 C.2       1 <0>        -0.1661
      2 C2          2.9183    1.1250   -1.4434 C.2       1 <0>        -0.1030
      3 C3          1.7761    1.7781   -1.1174 C.2       1 <0>        -0.1875
      4 S1          2.2913    3.4856   -1.1981 S.3       1 <0>         0.0866
      5 C4          3.9962    3.2130   -1.6519 C.2       1 <0>        -0.1520
      6 C5          0.4213    1.2105   -0.7807 C.3       1 <0>        -0.4833
      7 H1          0.4604    0.1224   -0.8315 H         1 <0>         0.1715
      8 C6         -0.6127    1.7310   -1.7811 C.3       1 <0>         0.1272
      9 N1         -1.9297    1.1792   -1.4537 N.pl3     1 <0>        -1.1383
     10 S2         -3.2929    1.8346   -2.1279 S.o2      1 <0>         2.6517
     11 O1         -3.0389    1.8409   -3.5260 O.2       1 <0>        -0.9339
     12 O2         -4.3654    1.0734   -1.5899 O.2       1 <0>        -0.9107
     13 C7         -3.3544    3.5340   -1.4963 C.3       1 <0>        -0.6286
     14 H2         -2.4375    4.0546   -1.7725 H         1 <0>         0.1725
     15 C8         -3.4814    3.5028    0.0524 C.3       1 <0>        -0.5693
     16 S3         -4.1475    5.2009    0.3408 S.o2      1 <0>         2.3867
     17 O3         -5.0305    5.1738    1.4538 O.2       1 <0>        -0.9211
     18 O4         -3.0757    6.1336    0.3165 O.2       1 <0>        -0.9126
     19 C9         -5.1299    5.3647   -1.2077 C.3       1 <0>        -0.6124
     20 C10        -4.5516    4.2584   -2.1101 C.3       1 <0>         0.1334
     21 H3         -4.2423    4.7061   -3.0546 H         1 <0>         0.1069
     22 O5         -5.5784    3.3011   -2.3773 O.3       1 <0>        -0.5674
     23 S4         -0.0486    1.7210    0.8954 S.o2      1 <0>         2.4819
     24 O6         -0.0425    3.1385    0.9951 O.2       1 <0>        -0.9095
     25 O7         -1.1687    0.9683    1.3403 O.2       1 <0>        -0.9165
     26 C11         1.2839    1.1925    1.9200 C.ar      1 <0>        -0.6538
     27 C12         2.3520    2.0387    2.1536 C.ar      1 <0>         0.0005
     28 C13         3.3999    1.6285    2.9564 C.ar      1 <0>        -0.1201
     29 C14         3.3816    0.3675    3.5300 C.ar      1 <0>         0.0977
     30 C15         2.3054   -0.4848    3.2950 C.ar      1 <0>         0.0136
     31 C16         1.2564   -0.0651    2.4932 C.ar      1 <0>        -0.0060
     32 O8          2.5212   -1.6547    3.9642 O.3       1 <0>        -0.3013
     33 C17         3.5397   -1.3584    4.9380 C.3       1 <0>         0.2098
     34 O9          4.2715   -0.2685    4.3465 O.3       1 <0>        -0.3008
     35 H4          4.9790    1.3647   -1.9800 H         1 <0>         0.1414
     36 H5          2.9388    0.0461   -1.4888 H         1 <0>         0.1396
     37 H6          4.7764    3.9378   -1.8317 H         1 <0>         0.1934
     38 H7         -0.6518    2.8191   -1.7302 H         1 <0>         0.0925
     39 H8         -0.3303    1.4242   -2.7882 H         1 <0>         0.1183
     40 H9         -2.0033    0.4299   -0.8421 H         1 <0>         0.4318
     41 H10        -4.1872    2.7385    0.3779 H         1 <0>         0.1674
     42 H11        -2.5097    3.3710    0.5283 H         1 <0>         0.1506
     43 H12        -6.1876    5.1875   -1.0129 H         1 <0>         0.1589
     44 H13        -4.9819    6.3476   -1.6550 H         1 <0>         0.1549
     45 H14        -6.3769    3.6799   -2.7695 H         1 <0>         0.4078
     46 H15         2.3678    3.0222    1.7076 H         1 <0>         0.1580
     47 H16         4.2332    2.2915    3.1369 H         1 <0>         0.1503
     48 H17         0.4185   -0.7223    2.3128 H         1 <0>         0.1561
     49 H18         3.0893   -1.0499    5.8815 H         1 <0>         0.0930
     50 H19         4.1883   -2.2213    5.0885 H         1 <0>         0.1404
@<TRIPOS>BOND
     1    1    5 2
     2    1    2 1
     3    1   35 1
     4    2    3 2
     5    2   36 1
     6    3    4 1
     7    3    6 1
     8    4    5 1
     9    5   37 1
    10    6    7 1
    11    6    8 1
    12    6   23 1
    13    8    9 1
    14    8   38 1
    15    8   39 1
    16    9   10 1
    17    9   40 1
    18   10   11 2
    19   10   12 2
    20   10   13 1
    21   13   14 1
    22   13   20 1
    23   13   15 1
    24   15   16 1
    25   15   41 1
    26   15   42 1
    27   16   17 2
    28   16   18 2
    29   16   19 1
    30   19   20 1
    31   19   43 1
    32   19   44 1
    33   20   21 1
    34   20   22 1
    35   22   45 1
    36   23   24 2
    37   23   25 2
    38   23   26 1
    39   26   31 ar
    40   26   27 ar
    41   27   28 ar
    42   27   46 1
    43   28   29 ar
    44   28   47 1
    45   29   34 1
    46   29   30 ar
    47   30   31 ar
    48   30   32 1
    49   31   48 1
    50   32   33 1
    51   33   34 1
    52   33   49 1
    53   33   50 1
@<TRIPOS>MOLECULE
ZINC13452188
   61    64     0     0     0
SMALL
USER_CHARGES
2-[4-[2-[(5-methylisoxazol-3-yl)amino]-2-oxo-ethyl]piperazin-1-yl]-5-morpholinosulfonyl-benzoic acid
@<TRIPOS>ATOM
      1 C1          2.5003    1.5459   -0.0140 C.3       1 <0>        -0.0815
      2 C2          1.0414    1.9233    0.0024 C.2       1 <0>        -0.0041
      3 C3         -0.0126    1.0758    0.0080 C.2       1 <0>        -0.2315
      4 C4         -1.1432    1.9353    0.0171 C.2       1 <0>         0.2295
      5 N1         -0.6740    3.1554    0.0255 N.2       1 <0>        -0.3726
      6 O1          0.5351    3.1648    0.0140 O.3       1 <0>         0.1094
      7 N2         -2.4851    1.5540    0.0204 N.am      1 <0>        -0.6094
      8 C5         -2.8143    0.2471    0.0146 C.2       1 <0>         0.5144
      9 O2         -1.9439   -0.5974    0.0065 O.2       1 <0>        -0.5022
     10 C6         -4.2639   -0.1648    0.0181 C.3       1 <0>        -0.0173
     11 C7         -3.8419   -2.1845   -1.2499 C.3       1 <0>        -0.0015
     12 C8         -3.8818   -3.7132   -1.1864 C.3       1 <0>         0.0405
     13 N3         -5.2624   -4.1550   -0.9451 N.pl3     1 <0>        -0.4648
     14 C9         -5.7768   -3.6014    0.3153 C.3       1 <0>         0.0354
     15 C10        -5.7370   -2.0727    0.2518 C.3       1 <0>         0.0071
     16 C11        -5.3498   -5.5405   -0.9523 C.ar      1 <0>         0.1457
     17 C12        -4.6819   -6.2876    0.0104 C.ar      1 <0>        -0.1841
     18 C13        -4.7707   -7.6642    0.0013 C.ar      1 <0>        -0.0181
     19 C14        -5.5239   -8.3131   -0.9649 C.ar      1 <0>        -0.6839
     20 C15        -6.1924   -7.5903   -1.9279 C.ar      1 <0>         0.0286
     21 C16        -6.1182   -6.1943   -1.9288 C.ar      1 <0>        -0.0952
     22 C17        -6.8367   -5.4145   -2.9512 C.2       1 <0>         0.4881
     23 O3         -6.7655   -4.2014   -2.9514 O.co2     1 <0>        -0.6031
     24 S1         -5.6260  -10.0721   -0.9612 S.o2      1 <0>         2.6900
     25 O4         -5.9456  -10.4632   -2.2894 O.2       1 <0>        -0.9434
     26 O5         -4.4686  -10.5447   -0.2855 O.2       1 <0>        -0.9556
     27 N4         -6.9249  -10.4852   -0.0206 N.pl3     1 <0>        -1.0009
     28 C18        -6.7697  -10.7214    1.4235 C.3       1 <0>         0.0865
     29 C19        -7.8288   -9.8872    2.1619 C.3       1 <0>         0.0476
     30 O6         -9.1165  -10.1676    1.6080 O.3       1 <0>        -0.3759
     31 C20        -9.2522   -9.8082    0.2310 C.3       1 <0>         0.0465
     32 C21        -8.2671  -10.6328   -0.6054 C.3       1 <0>         0.0840
     33 H1          2.8420    1.4607   -1.0455 H         1 <0>         0.0955
     34 H2          3.0800    2.3136    0.4986 H         1 <0>         0.0900
     35 H3          2.6342    0.5904    0.4932 H         1 <0>         0.0970
     36 H4          0.0021   -0.0041    0.0020 H         1 <0>         0.1915
     37 H5         -3.1812    2.2295    0.0268 H         1 <0>         0.4287
     38 H6         -4.7503    0.2253    0.9121 H         1 <0>         0.1649
     39 H7         -4.7573    0.2350   -0.8678 H         1 <0>         0.1704
     40 H8         -4.4604   -1.8387   -2.0782 H         1 <0>         0.1463
     41 H9         -2.8143   -1.8534   -1.3999 H         1 <0>         0.1418
     42 H10        -3.2418   -4.0602   -0.3752 H         1 <0>         0.0572
     43 H11        -3.5277   -4.1260   -2.1310 H         1 <0>         0.1229
     44 H12        -5.1584   -3.9472    1.1436 H         1 <0>         0.0562
     45 H13        -6.8044   -3.9325    0.4653 H         1 <0>         0.1241
     46 H14        -6.0910   -1.6602    1.1965 H         1 <0>         0.1338
     47 H15        -6.3769   -1.7257   -0.5595 H         1 <0>         0.1507
     48 H16        -4.0930   -5.7900    0.7666 H         1 <0>         0.1230
     49 H17        -4.2502   -8.2403    0.7521 H         1 <0>         0.1368
     50 H18        -6.7773   -8.1011   -2.6784 H         1 <0>         0.1555
     51 H19        -6.9154  -11.7797    1.6401 H         1 <0>         0.0856
     52 H20        -5.7729  -10.4151    1.7406 H         1 <0>         0.0974
     53 H21        -7.6059   -8.8265    2.0465 H         1 <0>         0.0545
     54 H22        -7.8233  -10.1473    3.2205 H         1 <0>         0.1056
     55 H23        -9.0345   -8.7472    0.1085 H         1 <0>         0.0588
     56 H24       -10.2705  -10.0122   -0.0999 H         1 <0>         0.1105
     57 H25        -8.2623  -10.2679   -1.6324 H         1 <0>         0.1048
     58 H26        -8.5607  -11.6824   -0.5901 H         1 <0>         0.0864
     59 N5         -4.3406   -1.6413    0.0310 N.4       1 <0>        -0.3833
     60 H27        -3.7558   -1.9990    0.7955 H         1 <0>         0.4280
     61 O7         -7.5730   -6.0464   -3.8865 O.co2     1 <0>        -0.7426
@<TRIPOS>BOND
     1    1    2 1
     2    1   33 1
     3    1   34 1
     4    1   35 1
     5    2    6 1
     6    2    3 2
     7    3    4 1
     8    3   36 1
     9    4    5 2
    10    4    7 1
    11    5    6 1
    12    7    8 am
    13    7   37 1
    14    8    9 2
    15    8   10 1
    16   10   38 1
    17   10   39 1
    18   10   59 1
    19   11   12 1
    20   11   40 1
    21   11   41 1
    22   11   59 1
    23   12   13 1
    24   12   42 1
    25   12   43 1
    26   13   14 1
    27   13   16 1
    28   14   15 1
    29   14   44 1
    30   14   45 1
    31   15   46 1
    32   15   47 1
    33   15   59 1
    34   16   21 ar
    35   16   17 ar
    36   17   18 ar
    37   17   48 1
    38   18   19 ar
    39   18   49 1
    40   19   20 ar
    41   19   24 1
    42   20   21 ar
    43   20   50 1
    44   21   22 1
    45   22   23 2
    46   22   61 1
    47   24   25 2
    48   24   26 2
    49   24   27 1
    50   27   32 1
    51   27   28 1
    52   28   29 1
    53   28   51 1
    54   28   52 1
    55   29   30 1
    56   29   53 1
    57   29   54 1
    58   30   31 1
    59   31   32 1
    60   31   55 1
    61   31   56 1
    62   32   57 1
    63   32   58 1
    64   59   60 1
@<TRIPOS>MOLECULE
ZINC03285476
   46    48     0     0     0
SMALL
USER_CHARGES
6-amino-5-[2-[[5-[(4-bromophenoxy)methyl]-1H-1,2,4-triazol-3-yl]sulfanyl]acetyl]-1,3-dimethyl-pyrimidine-2,4-dione
@<TRIPOS>ATOM
      1 C1         -2.4740    6.0146    3.9155 C.3       1 <0>         0.0680
      2 N1         -1.7156    5.5066    2.7696 N.am      1 <0>        -0.5462
      3 C2         -1.6165    4.1581    2.5774 C.2       1 <0>         0.5700
      4 C3         -0.8827    3.6802    1.4778 C.2       1 <0>        -0.4660
      5 C4         -0.2674    4.6679    0.5818 C.2       1 <0>         0.5840
      6 O1          0.3746    4.3112   -0.3888 O.2       1 <0>        -0.5141
      7 N2         -0.4290    5.9786    0.8567 N.am      1 <0>        -0.5586
      8 C5         -1.1374    6.3759    1.9262 C.2       1 <0>         0.7119
      9 O2         -1.2590    7.5665    2.1383 O.2       1 <0>        -0.5219
     10 C6          0.1759    6.9818   -0.0231 C.3       1 <0>         0.0740
     11 C7         -0.7466    2.2960    1.2391 C.2       1 <0>         0.4717
     12 O3         -1.1757    1.4956    2.0457 O.2       1 <0>        -0.4950
     13 C8         -0.0689    1.8109   -0.0164 C.3       1 <0>        -0.1743
     14 S1         -0.0505   -0.0030   -0.0314 S.3       1 <0>         0.0738
     15 C9          0.7632   -0.4085   -1.5407 C.2       1 <0>         0.2560
     16 N3          1.0137   -1.6453   -1.9822 N.2       1 <0>        -0.5097
     17 C10         1.6287   -1.5874   -3.1359 C.2       1 <0>         0.2296
     18 N4          1.7866   -0.2940   -3.4635 N.2       1 <0>        -0.3109
     19 N5          1.2233    0.4537   -2.4168 N.pl3     1 <0>        -0.4596
     20 C11         2.0817   -2.7679   -3.9558 C.3       1 <0>         0.1568
     21 O4          2.7240   -2.3037   -5.1449 O.3       1 <0>        -0.2963
     22 C12         3.1950   -3.2485   -6.0008 C.ar      1 <0>         0.1496
     23 C13         3.0471   -4.5945   -5.6994 C.ar      1 <0>        -0.2056
     24 C14         3.5211   -5.5533   -6.5738 C.ar      1 <0>        -0.0475
     25 C15         4.1535   -5.1719   -7.7436 C.ar      1 <0>        -0.1303
     26 C16         4.3074   -3.8301   -8.0432 C.ar      1 <0>        -0.0498
     27 C17         3.8294   -2.8682   -7.1745 C.ar      1 <0>        -0.1426
     28 Br1         4.8076   -6.4865   -8.9351 Br        1 <0>        -0.0503
     29 N6         -2.2140    3.2912    3.4391 N.pl3     1 <0>        -0.8125
     30 H1         -2.8746    5.1691    4.4940 H         1 <0>         0.0914
     31 H2         -3.3049    6.6401    3.5571 H         1 <0>         0.0973
     32 H3         -1.8120    6.6160    4.5558 H         1 <0>         0.0978
     33 H4         -0.0585    7.9885    0.3531 H         1 <0>         0.1036
     34 H5         -0.2265    6.8676   -1.0405 H         1 <0>         0.0836
     35 H6          1.2669    6.8424   -0.0425 H         1 <0>         0.0836
     36 H7         -0.6182    2.1793   -0.8953 H         1 <0>         0.1277
     37 H8          0.9639    2.1883   -0.0448 H         1 <0>         0.1341
     38 H9          1.2105   -3.3828   -4.2257 H         1 <0>         0.0982
     39 H10         2.7892   -3.3720   -3.3688 H         1 <0>         0.0983
     40 H11         2.5575   -4.8926   -4.7840 H         1 <0>         0.1398
     41 H12         3.4019   -6.6013   -6.3417 H         1 <0>         0.1371
     42 H13         4.8014   -3.5344   -8.9569 H         1 <0>         0.1406
     43 H14         3.9492   -1.8208   -7.4091 H         1 <0>         0.1418
     44 H15        -2.1285    2.2068    3.2758 H         1 <0>         0.4667
     45 H16        -2.7826    3.6747    4.2991 H         1 <0>         0.4258
     46 H17         1.2363    1.5529   -2.4571 H         1 <0>         0.4785
@<TRIPOS>BOND
     1    1    2 1
     2    1   30 1
     3    1   31 1
     4    1   32 1
     5    2    8 am
     6    2    3 1
     7    3    4 2
     8    3   29 1
     9    4    5 1
    10    4   11 1
    11    5    6 2
    12    5    7 am
    13    7    8 am
    14    7   10 1
    15    8    9 2
    16   10   33 1
    17   10   34 1
    18   10   35 1
    19   11   12 2
    20   11   13 1
    21   13   36 1
    22   13   37 1
    23   13   14 1
    24   14   15 1
    25   15   16 2
    26   15   19 1
    27   16   17 1
    28   17   20 1
    29   17   18 2
    30   18   19 1
    31   19   46 1
    32   20   21 1
    33   20   38 1
    34   20   39 1
    35   21   22 1
    36   22   27 ar
    37   22   23 ar
    38   23   24 ar
    39   23   40 1
    40   24   25 ar
    41   24   41 1
    42   25   26 ar
    43   25   28 1
    44   26   27 ar
    45   26   42 1
    46   27   43 1
    47   29   44 1
    48   29   45 1
@<TRIPOS>MOLECULE
ZINC46899131
   56    59     0     0     0
SMALL
USER_CHARGES

@<TRIPOS>ATOM
      1 C1          3.6862    1.1357    0.7064 C.ar      1 <0>        -0.1483
      2 C2          4.9701    1.5885    0.9762 C.ar      1 <0>        -0.0565
      3 C3          6.0036    0.6991    1.1711 C.ar      1 <0>        -0.1648
      4 C4          5.7653   -0.6712    1.0981 C.ar      1 <0>         0.1753
      5 C5          4.4647   -1.1271    0.8249 C.ar      1 <0>        -0.1830
      6 C6          3.4277   -0.2147    0.6296 C.ar      1 <0>        -0.0307
      7 C7          4.2262   -2.5806    0.7504 C.2       1 <0>         0.4313
      8 C8          5.3826   -3.4635    0.9704 C.2       1 <0>        -0.3501
      9 C9          6.6132   -2.8976    1.2314 C.2       1 <0>         0.2528
     10 N1          6.7908   -1.5712    1.2908 N.pl3     1 <0>        -0.5919
     11 C10         5.2287   -4.9257    0.9135 C.2       1 <0>         0.5912
     12 O1          6.2101   -5.6428    0.9601 O.2       1 <0>        -0.5617
     13 N2          4.0004   -5.4705    0.8096 N.am      1 <0>        -0.7119
     14 C11         3.8377   -6.9256    0.8603 C.3       1 <0>         0.1002
     15 C12         2.3777   -7.2730    0.7228 C.2       1 <0>         0.5116
     16 O2          1.5542   -6.3919    0.5951 O.2       1 <0>        -0.5213
     17 N3          1.9873   -8.5628    0.7418 N.am      1 <0>        -0.6098
     18 C13         2.9734   -9.6406    0.9020 C.3       1 <0>         0.0909
     19 C14         2.5644  -10.5048    2.1012 C.3       1 <0>         0.0978
     20 N4          1.1448  -10.8586    1.9626 N.pl3     1 <0>        -1.0012
     21 C15         0.1586   -9.7808    1.8024 C.3       1 <0>         0.0973
     22 C16         0.5670   -8.9163    0.6088 C.3       1 <0>         0.1004
     23 S1          0.6649  -12.4434    1.9860 S.o2      1 <0>         2.6936
     24 O3         -0.5303  -12.5172    1.2211 O.2       1 <0>        -0.9251
     25 O4          1.8146  -13.2204    1.6797 O.2       1 <0>        -0.9211
     26 C17         0.2241  -12.8298    3.6476 C.ar      1 <0>        -0.6270
     27 C18         0.0432  -11.8148    4.5687 C.ar      1 <0>        -0.0305
     28 C19        -0.3026  -12.1178    5.8721 C.ar      1 <0>        -0.0842
     29 C20        -0.4680  -13.4361    6.2547 C.ar      1 <0>        -0.0673
     30 C21        -0.2881  -14.4508    5.3337 C.ar      1 <0>        -0.0630
     31 C22         0.0537  -14.1474    4.0288 C.ar      1 <0>         0.0375
     32 N5          0.2414  -15.2338    3.0412 N.pl3     1 <0>         0.0166
     33 O5          0.2230  -16.3878    3.4012 O.2       1 <0>        -0.1125
     34 O6          0.4132  -14.9671    1.8746 O.3       1 <0>        -0.1524
     35 O7          3.1183   -3.0313    0.5169 O.2       1 <0>        -0.4758
     36 H1          2.8855    1.8456    0.5604 H         1 <0>         0.1356
     37 H2          5.1611    2.6500    1.0336 H         1 <0>         0.1364
     38 H3          6.9983    1.0641    1.3800 H         1 <0>         0.1371
     39 H4          2.4279   -0.5654    0.4199 H         1 <0>         0.1439
     40 H5          7.4620   -3.5456    1.3929 H         1 <0>         0.1832
     41 H6          3.2240   -4.8992    0.7013 H         1 <0>         0.4254
     42 H7          4.3982   -7.3825    0.0447 H         1 <0>         0.1006
     43 H8          4.2122   -7.3001    1.8130 H         1 <0>         0.0983
     44 H9          2.9959  -10.2529    0.0005 H         1 <0>         0.0874
     45 H10         3.9592   -9.2109    1.0800 H         1 <0>         0.1051
     46 H11         3.1675  -11.4126    2.1205 H         1 <0>         0.1133
     47 H12         2.7133   -9.9441    3.0240 H         1 <0>         0.0811
     48 H13        -0.8272  -10.2105    1.6244 H         1 <0>         0.1092
     49 H14         0.1361   -9.1685    2.7039 H         1 <0>         0.0800
     50 H15        -0.0361   -8.0085    0.5933 H         1 <0>         0.1115
     51 H16         0.4141   -9.4759   -0.3140 H         1 <0>         0.0822
     52 H17         0.1724  -10.7850    4.2698 H         1 <0>         0.1566
     53 H18        -0.4432  -11.3250    6.5918 H         1 <0>         0.1553
     54 H19        -0.7375  -13.6729    7.2734 H         1 <0>         0.1594
     55 H20        -0.4169  -15.4805    5.6327 H         1 <0>         0.1661
     56 H21         7.6792   -1.2297    1.4780 H         1 <0>         0.4260
@<TRIPOS>BOND
     1    1    6 ar
     2    1    2 ar
     3    1   36 1
     4    2    3 ar
     5    2   37 1
     6    3    4 ar
     7    3   38 1
     8    4   10 1
     9    4    5 ar
    10    5    6 ar
    11    5    7 1
    12    6   39 1
    13    7    8 1
    14    7   35 2
    15    8    9 2
    16    8   11 1
    17    9   10 1
    18    9   40 1
    19   10   56 1
    20   11   12 2
    21   11   13 am
    22   13   14 1
    23   13   41 1
    24   14   15 1
    25   14   42 1
    26   14   43 1
    27   15   16 2
    28   15   17 am
    29   17   22 1
    30   17   18 1
    31   18   19 1
    32   18   44 1
    33   18   45 1
    34   19   20 1
    35   19   46 1
    36   19   47 1
    37   20   21 1
    38   20   23 1
    39   21   22 1
    40   21   48 1
    41   21   49 1
    42   22   50 1
    43   22   51 1
    44   23   24 2
    45   23   25 2
    46   23   26 1
    47   26   31 ar
    48   26   27 ar
    49   27   28 ar
    50   27   52 1
    51   28   29 ar
    52   28   53 1
    53   29   30 ar
    54   29   54 1
    55   30   31 ar
    56   30   55 1
    57   31   32 1
    58   32   33 2
    59   32   34 1
@<TRIPOS>MOLECULE
ZINC01786655
   48    50     0     0     0
SMALL
USER_CHARGES
methyl 2-methoxyethyl amino-bromo-methyl-oxo-BLAHdicarboxylate
@<TRIPOS>ATOM
      1 C1          3.2508    6.4703   -2.4765 C.3       1 <0>        -0.1043
      2 C2          2.9864    5.7412   -1.1844 C.2       1 <0>         0.2062
      3 C3          2.7602    4.4206   -1.2209 C.2       1 <0>        -0.2447
      4 C4          2.4941    3.6512    0.0404 C.3       1 <0>         0.0873
      5 C5          1.0366    3.2746    0.1318 C.ar      1 <0>        -0.1313
      6 C6         -0.1236    4.0138    0.1885 C.ar      1 <0>        -0.0252
      7 C7         -1.3482    3.3728    0.2703 C.ar      1 <0>        -0.1213
      8 C8         -1.4009    1.9901    0.2890 C.ar      1 <0>        -0.0467
      9 C9         -0.2397    1.2476    0.2377 C.ar      1 <0>        -0.1335
     10 C10         0.9964    1.8854    0.1551 C.ar      1 <0>         0.2043
     11 N1          2.2897    1.3640    0.0857 N.am      1 <0>        -0.6353
     12 C11         3.2237    2.3292    0.0157 C.2       1 <0>         0.5683
     13 O1          4.4239    2.1684   -0.0536 O.2       1 <0>        -0.4905
     14 Br1        -2.9443    4.3838    0.3484 Br        1 <0>        -0.0468
     15 C12         2.9055    4.4534    1.2415 C.2       1 <0>        -0.3347
     16 C13         3.1275    5.7905    1.1321 C.2       1 <0>         0.4619
     17 O2          2.9849    6.4357   -0.0374 O.3       1 <0>        -0.2337
     18 N2          3.5054    6.4971    2.2422 N.pl3     1 <0>        -0.8093
     19 C14         3.0612    3.8197    2.4839 C.2       1 <0>         0.5373
     20 O3          3.4779    4.4484    3.4404 O.2       1 <0>        -0.5331
     21 O4          2.7491    2.5126    2.6191 O.3       1 <0>        -0.3472
     22 C15         2.9322    1.9322    3.9120 C.3       1 <0>         0.0388
     23 C16         2.7728    3.7425   -2.4647 C.2       1 <0>         0.5249
     24 O5          2.8805    4.3725   -3.4999 O.2       1 <0>        -0.5046
     25 O6          2.6654    2.3981   -2.5013 O.3       1 <0>        -0.3365
     26 C17         2.6854    1.7805   -3.7897 C.3       1 <0>         0.0717
     27 C18         2.5534    0.2645   -3.6307 C.3       1 <0>         0.0620
     28 O7          1.2712   -0.0470   -3.0820 O.3       1 <0>        -0.3798
     29 C19         1.0443   -1.4450   -2.8922 C.3       1 <0>         0.0298
     30 H1          2.3662    6.4173   -3.1113 H         1 <0>         0.1152
     31 H2          3.4833    7.5138   -2.2639 H         1 <0>         0.0814
     32 H3          4.0940    6.0073   -2.9890 H         1 <0>         0.1131
     33 H4         -0.0785    5.0927    0.1697 H         1 <0>         0.1290
     34 H5         -2.3562    1.4898    0.3485 H         1 <0>         0.1396
     35 H6         -0.2888    0.1689    0.2572 H         1 <0>         0.1349
     36 H7          2.4913    0.4152    0.0884 H         1 <0>         0.4139
     37 H8          3.1817    7.4019    2.3747 H         1 <0>         0.4095
     38 H9          4.0970    6.0930    2.8962 H         1 <0>         0.4383
     39 H10         3.9796    2.0147    4.2023 H         1 <0>         0.0597
     40 H11         2.3116    2.4581    4.6375 H         1 <0>         0.0612
     41 H12         2.6451    0.8811    3.8824 H         1 <0>         0.0993
     42 H13         1.8543    2.1570   -4.3861 H         1 <0>         0.0799
     43 H14         3.6258    2.0129   -4.2895 H         1 <0>         0.0850
     44 H15         2.6576   -0.2134   -4.6048 H         1 <0>         0.0741
     45 H16         3.3331   -0.0999   -2.9619 H         1 <0>         0.0607
     46 H17         0.0500   -1.5981   -2.4727 H         1 <0>         0.0881
     47 H18         1.1172   -1.9585   -3.8509 H         1 <0>         0.0421
     48 H19         1.7928   -1.8450   -2.2080 H         1 <0>         0.0411
@<TRIPOS>BOND
     1    1    2 1
     2    1   30 1
     3    1   31 1
     4    1   32 1
     5    2   17 1
     6    2    3 2
     7    3    4 1
     8    3   23 1
     9    4   12 1
    10    4    5 1
    11    4   15 1
    12    5   10 ar
    13    5    6 ar
    14    6    7 ar
    15    6   33 1
    16    7    8 ar
    17    7   14 1
    18    8    9 ar
    19    8   34 1
    20    9   10 ar
    21    9   35 1
    22   10   11 1
    23   11   12 am
    24   11   36 1
    25   12   13 2
    26   15   16 2
    27   15   19 1
    28   16   17 1
    29   16   18 1
    30   18   37 1
    31   18   38 1
    32   19   20 2
    33   19   21 1
    34   21   22 1
    35   22   39 1
    36   22   40 1
    37   22   41 1
    38   23   24 2
    39   23   25 1
    40   25   26 1
    41   26   27 1
    42   26   42 1
    43   26   43 1
    44   27   28 1
    45   27   44 1
    46   27   45 1
    47   28   29 1
    48   29   46 1
    49   29   47 1
    50   29   48 1
@<TRIPOS>MOLECULE
ZINC12584525
   52    55     0     0     0
SMALL
USER_CHARGES
N-[2-morpholino-5-(trifluoromethyl)phenyl]-2,4-dioxo-1,5-dihydro-1,5-benzodiazepine-7-sulfonamide
@<TRIPOS>ATOM
      1 C1         -2.2569    2.6698    1.2676 C.ar      1 <0>        -0.0707
      2 C2         -2.8302    3.0406    2.4704 C.ar      1 <0>        -0.1230
      3 C3         -2.0584    3.0870    3.6209 C.ar      1 <0>         0.1009
      4 C4         -0.7050    2.7532    3.5621 C.ar      1 <0>         0.1813
      5 C5         -0.1399    2.3773    2.3534 C.ar      1 <0>        -0.1262
      6 C6         -0.9174    2.3338    1.2103 C.ar      1 <0>        -0.1518
      7 C7         -0.3009    1.9247   -0.1025 C.3       1 <0>         0.5088
      8 F1         -0.4098    0.5386   -0.2571 F         1 <0>        -0.1713
      9 F2          1.0492    2.2911   -0.1180 F         1 <0>        -0.1717
     10 F3         -0.9698    2.5648   -1.1514 F         1 <0>        -0.1742
     11 N1          0.0801    2.7975    4.7206 N.pl3     1 <0>        -1.0384
     12 S1          1.6633    3.2746    4.6302 S.o2      1 <0>         2.6884
     13 O1          2.1438    3.3427    5.9657 O.2       1 <0>        -0.9370
     14 O2          2.2769    2.4603    3.6403 O.2       1 <0>        -0.9375
     15 C8          1.6761    4.9222    4.0057 C.ar      1 <0>        -0.6676
     16 C9          1.7508    5.1460    2.6429 C.ar      1 <0>        -0.0045
     17 C10         1.7557    6.4359    2.1583 C.ar      1 <0>        -0.1341
     18 C11         1.6952    7.5262    3.0296 C.ar      1 <0>         0.1900
     19 C12         1.6256    7.3021    4.3949 C.ar      1 <0>         0.1071
     20 C13         1.6174    5.9901    4.8745 C.ar      1 <0>        -0.0066
     21 N2          1.5612    8.3183    5.3434 N.am      1 <0>        -0.6603
     22 C14         2.2604    9.4495    5.3163 C.2       1 <0>         0.5286
     23 O3          2.1438   10.2433    6.2259 O.2       1 <0>        -0.5044
     24 C15         3.1952    9.7627    4.1767 C.3       1 <0>        -0.1656
     25 C16         2.3842    9.8448    2.9094 C.2       1 <0>         0.5297
     26 O4          2.3462   10.8891    2.2937 O.2       1 <0>        -0.5004
     27 N3          1.7085    8.7929    2.4534 N.am      1 <0>        -0.6642
     28 N4         -2.6355    3.4671    4.8387 N.pl3     1 <0>        -0.5017
     29 C17        -3.6698    2.5083    5.2536 C.3       1 <0>         0.0174
     30 C18        -4.2310    2.9285    6.6147 C.3       1 <0>         0.0626
     31 O5         -4.7351    4.2638    6.5252 O.3       1 <0>        -0.3808
     32 C19        -3.7540    5.2240    6.1241 C.3       1 <0>         0.0627
     33 C20        -3.1880    4.8271    4.7580 C.3       1 <0>         0.0213
     34 H1         -2.8585    2.6388    0.3712 H         1 <0>         0.1430
     35 H2         -3.8781    3.2984    2.5124 H         1 <0>         0.1395
     36 H3          0.9073    2.1179    2.3043 H         1 <0>         0.1784
     37 H4         -0.3034    2.5487    5.5761 H         1 <0>         0.4373
     38 H5          1.8014    4.3112    1.9595 H         1 <0>         0.1525
     39 H6          1.8098    6.6060    1.0931 H         1 <0>         0.1506
     40 H7          1.5640    5.8107    5.9382 H         1 <0>         0.1558
     41 H8          0.9535    8.1912    6.0887 H         1 <0>         0.4162
     42 H9          3.9408    8.9728    4.0854 H         1 <0>         0.1297
     43 H10         3.6900   10.7166    4.3588 H         1 <0>         0.1473
     44 H11         1.1793    8.9201    1.6505 H         1 <0>         0.4182
     45 H12        -4.4727    2.4975    4.5165 H         1 <0>         0.0545
     46 H13        -3.2330    1.5128    5.3316 H         1 <0>         0.0928
     47 H14        -3.4395    2.8877    7.3630 H         1 <0>         0.0639
     48 H15        -5.0375    2.2533    6.9007 H         1 <0>         0.1041
     49 H16        -2.9487    5.2499    6.8581 H         1 <0>         0.0632
     50 H17        -4.2151    6.2092    6.0547 H         1 <0>         0.1027
     51 H18        -2.3995    5.5241    4.4743 H         1 <0>         0.0895
     52 H19        -3.9832    4.8533    4.0130 H         1 <0>         0.0541
@<TRIPOS>BOND
     1    1    6 ar
     2    1    2 ar
     3    1   34 1
     4    2    3 ar
     5    2   35 1
     6    3    4 ar
     7    3   28 1
     8    4    5 ar
     9    4   11 1
    10    5    6 ar
    11    5   36 1
    12    6    7 1
    13    7    8 1
    14    7    9 1
    15    7   10 1
    16   11   12 1
    17   11   37 1
    18   12   13 2
    19   12   14 2
    20   12   15 1
    21   15   20 ar
    22   15   16 ar
    23   16   17 ar
    24   16   38 1
    25   17   18 ar
    26   17   39 1
    27   18   27 1
    28   18   19 ar
    29   19   20 ar
    30   19   21 1
    31   20   40 1
    32   21   22 am
    33   21   41 1
    34   22   23 2
    35   22   24 1
    36   24   25 1
    37   24   42 1
    38   24   43 1
    39   25   26 2
    40   25   27 am
    41   27   44 1
    42   28   33 1
    43   28   29 1
    44   29   30 1
    45   29   45 1
    46   29   46 1
    47   30   31 1
    48   30   47 1
    49   30   48 1
    50   31   32 1
    51   32   33 1
    52   32   49 1
    53   32   50 1
    54   33   51 1
    55   33   52 1
@<TRIPOS>MOLECULE
ZINC21705689
   60    64     0     0     0
SMALL
USER_CHARGES
N-(2-oxo-1,3-dihydrobenzimidazol-5-yl)-5-(1-piperidylsulfonyl)-2-pyrrolidin-1-yl-benzamide
@<TRIPOS>ATOM
      1 C1          8.7116    2.2887   -2.7057 C.ar      1 <0>        -0.1364
      2 C2          9.6227    2.9622   -3.4948 C.ar      1 <0>        -0.0844
      3 C3          9.5955    2.8041   -4.8718 C.ar      1 <0>         0.0617
      4 C4          8.6506    1.9595   -5.4591 C.ar      1 <0>         0.1017
      5 C5          7.7412    1.2805   -4.6641 C.ar      1 <0>        -0.1125
      6 C6          7.7737    1.4431   -3.2866 C.ar      1 <0>         0.1657
      7 N1          6.8561    0.7584   -2.4805 N.am      1 <0>        -0.6867
      8 C7          6.4283   -0.4684   -2.8389 C.2       1 <0>         0.5580
      9 O1          6.9056   -1.0183   -3.8130 O.2       1 <0>        -0.4720
     10 C8          5.3819   -1.1436   -2.0502 C.ar      1 <0>        -0.1343
     11 C9          4.9101   -0.5666   -0.8681 C.ar      1 <0>         0.0186
     12 C10         3.9318   -1.2025   -0.1359 C.ar      1 <0>        -0.6885
     13 C11         3.4154   -2.4161   -0.5620 C.ar      1 <0>         0.0161
     14 C12         3.8666   -2.9960   -1.7298 C.ar      1 <0>        -0.1798
     15 C13         4.8529   -2.3698   -2.4820 C.ar      1 <0>         0.2024
     16 N2          5.3125   -2.9541   -3.6551 N.pl3     1 <0>        -0.4746
     17 C14         5.7450   -4.3551   -3.4181 C.3       1 <0>         0.0337
     18 C15         5.7078   -4.9820   -4.8345 C.3       1 <0>        -0.1194
     19 C16         4.4632   -4.3228   -5.4718 C.3       1 <0>        -0.1254
     20 C17         4.2360   -3.0300   -4.6665 C.3       1 <0>         0.0452
     21 S1          3.3388   -0.4726    1.3542 S.o2      1 <0>         2.6902
     22 O2          4.3690    0.3862    1.8237 O.2       1 <0>        -0.9503
     23 O3          2.8106   -1.5304    2.1424 O.2       1 <0>        -0.9494
     24 N3          2.0608    0.4992    0.9485 N.pl3     1 <0>        -0.9946
     25 C18         0.6920   -0.0344    0.9269 C.3       1 <0>         0.1161
     26 C19         0.0681    0.2638   -0.4401 C.3       1 <0>        -0.1367
     27 C20         0.1621    1.7649   -0.7228 C.3       1 <0>        -0.1196
     28 C21         1.6325    2.1875   -0.7604 C.3       1 <0>        -0.1371
     29 C22         2.2741    1.9112    0.6029 C.3       1 <0>         0.1162
     30 N4          8.8689    2.0054   -6.8341 N.am      1 <0>        -0.6544
     31 H1          8.2369    1.4123   -7.5114 H         1 <0>         0.4647
     32 C23         9.8986    2.8390   -7.0733 C.2       1 <0>         0.7007
     33 O4         10.3454    3.1026   -8.1740 O.2       1 <0>        -0.5613
     34 N5         10.3590    3.3370   -5.9102 N.am      1 <0>        -0.6551
     35 H2         11.1761    4.0390   -5.6878 H         1 <0>         0.4640
     36 H3          8.7306    2.4158   -1.6334 H         1 <0>         0.1367
     37 H4         10.3528    3.6153   -3.0400 H         1 <0>         0.1352
     38 H5          7.0092    0.6271   -5.1153 H         1 <0>         0.1418
     39 H6          6.4844    1.2218   -1.5547 H         1 <0>         0.4310
     40 H7          5.3117    0.3769   -0.5292 H         1 <0>         0.1440
     41 H8          2.6517   -2.9089    0.0215 H         1 <0>         0.1458
     42 H9          3.4559   -3.9396   -2.0572 H         1 <0>         0.1406
     43 H10         6.7552   -4.3583   -2.9828 H         1 <0>         0.0863
     44 H11         5.0449   -4.8425   -2.7236 H         1 <0>         0.0507
     45 H12         6.6374   -4.7363   -5.3687 H         1 <0>         0.0801
     46 H13         5.6116   -6.0745   -4.7496 H         1 <0>         0.0763
     47 H14         4.6638   -4.1093   -6.5321 H         1 <0>         0.0782
     48 H15         3.6048   -5.0059   -5.3914 H         1 <0>         0.0715
     49 H16         3.2592   -3.0540   -4.1612 H         1 <0>         0.0492
     50 H17         4.2874   -2.1493   -5.3235 H         1 <0>         0.0849
     51 H18         0.7194   -1.1211    1.0953 H         1 <0>         0.0914
     52 H19         0.0991    0.4447    1.7200 H         1 <0>         0.0795
     53 H20         0.6098   -0.2922   -1.2195 H         1 <0>         0.0664
     54 H21        -0.9878   -0.0447   -0.4364 H         1 <0>         0.0778
     55 H22        -0.3071    1.9854   -1.6930 H         1 <0>         0.0662
     56 H23        -0.3584    2.3208    0.0709 H         1 <0>         0.0672
     57 H24         2.1589    1.6144   -1.5379 H         1 <0>         0.0667
     58 H25         1.6996    3.2616   -0.9879 H         1 <0>         0.0784
     59 H26         1.8112    2.5502    1.3693 H         1 <0>         0.0796
     60 H27         3.3534    2.1182    0.5560 H         1 <0>         0.0916
@<TRIPOS>BOND
     1    1    6 ar
     2    1    2 ar
     3    1   36 1
     4    2    3 ar
     5    2   37 1
     6    3   34 1
     7    3    4 ar
     8    4    5 ar
     9    4   30 1
    10    5    6 ar
    11    5   38 1
    12    6    7 1
    13    7    8 am
    14    7   39 1
    15    8    9 2
    16    8   10 1
    17   10   15 ar
    18   10   11 ar
    19   11   12 ar
    20   11   40 1
    21   12   13 ar
    22   12   21 1
    23   13   14 ar
    24   13   41 1
    25   14   15 ar
    26   14   42 1
    27   15   16 1
    28   16   20 1
    29   16   17 1
    30   17   18 1
    31   17   43 1
    32   17   44 1
    33   18   19 1
    34   18   45 1
    35   18   46 1
    36   19   20 1
    37   19   47 1
    38   19   48 1
    39   20   49 1
    40   20   50 1
    41   21   22 2
    42   21   23 2
    43   21   24 1
    44   24   29 1
    45   24   25 1
    46   25   26 1
    47   25   51 1
    48   25   52 1
    49   26   27 1
    50   26   53 1
    51   26   54 1
    52   27   28 1
    53   27   55 1
    54   27   56 1
    55   28   29 1
    56   28   57 1
    57   28   58 1
    58   29   59 1
    59   29   60 1
    60   30   31 1
    61   30   32 am
    62   32   33 2
    63   32   34 am
    64   34   35 1
@<TRIPOS>MOLECULE
ZINC09217677
   62    65     0     0     0
SMALL
USER_CHARGES

@<TRIPOS>ATOM
      1 C1          0.0558    0.5650    0.4058 C.3       1 <0>        -0.1466
      2 C2         -0.0427   -0.9260    0.0771 C.3       1 <0>        -0.1073
      3 H1         -1.0914   -1.2103   -0.0105 H         1 <0>         0.1287
      4 C3          0.6046   -1.7269    1.1774 C.2       1 <0>         0.5362
      5 O1          1.7613   -2.0763    1.0732 O.2       1 <0>        -0.4806
      6 N1         -0.1020   -2.0548    2.2773 N.am      1 <0>        -0.6101
      7 C4          0.4936   -2.7916    3.2897 C.2       1 <0>         0.0304
      8 C5         -0.0731   -3.2200    4.4758 C.2       1 <0>        -0.2180
      9 C6          0.7752   -3.9899    5.3840 C.2       1 <0>        -0.0908
     10 C7          2.0278   -4.1829    4.9334 C.2       1 <0>        -0.2470
     11 S1          2.0649   -3.3744    3.3538 S.3       1 <0>         0.3262
     12 C8          2.8580   -4.9756    5.9063 C.3       1 <0>        -0.0313
     13 C9          2.0803   -4.8957    7.2387 C.3       1 <0>        -0.1159
     14 C10         0.6370   -4.6638    6.7475 C.3       1 <0>        -0.0600
     15 C11        -1.4677   -2.9142    4.8093 C.2       1 <0>         0.5832
     16 O2         -2.3544   -3.6797    4.4788 O.2       1 <0>        -0.5329
     17 N2         -1.7679   -1.7855    5.4818 N.am      1 <0>        -0.8475
     18 S2          0.8065   -1.2568   -1.4914 S.3       1 <0>         0.0798
     19 C12        -0.1454   -0.3775   -2.6852 C.2       1 <0>         0.1963
     20 N3         -1.2130    0.3430   -2.4408 N.2       1 <0>        -0.3175
     21 N4         -1.6661    0.8712   -3.6567 N.2       1 <0>        -0.3048
     22 C13        -0.8611    0.4565   -4.6037 C.2       1 <0>         0.4708
     23 N5          0.1028   -0.3219   -4.0281 N.pl3     1 <0>        -0.4826
     24 C14         1.2068   -0.9835   -4.7279 C.3       1 <0>         0.1060
     25 C15         2.3677   -0.0008   -4.8935 C.3       1 <0>        -0.1082
     26 C16         2.9218    0.3707   -3.5166 C.3       1 <0>        -0.1517
     27 C17         3.4718   -0.6518   -5.7289 C.3       1 <0>        -0.1450
     28 N6         -0.9663    0.7594   -5.9552 N.pl3     1 <0>        -0.6283
     29 C18        -1.6620   -0.1468   -6.8826 C.3       1 <0>         0.1100
     30 C19        -2.6751    0.6724   -7.6902 C.3       1 <0>         0.0482
     31 O3         -2.0120    1.7948   -8.2770 O.3       1 <0>        -0.3772
     32 C20        -1.4612    2.7111   -7.3279 C.3       1 <0>         0.0475
     33 C21        -0.3907    1.9990   -6.5007 C.3       1 <0>         0.1127
     34 H2          1.1044    0.8492    0.4934 H         1 <0>         0.0778
     35 H3         -0.4124    1.1442   -0.3901 H         1 <0>         0.0939
     36 H4         -0.4545    0.7637    1.3482 H         1 <0>         0.0746
     37 H5         -1.0271   -1.7753    2.3607 H         1 <0>         0.4224
     38 H6          2.9431   -6.0113    5.5775 H         1 <0>         0.0854
     39 H7          3.8459   -4.5282    6.0155 H         1 <0>         0.0802
     40 H8          2.1582   -5.8313    7.7925 H         1 <0>         0.0847
     41 H9          2.4262   -4.0568    7.8425 H         1 <0>         0.0773
     42 H10         0.1034   -4.0113    7.4386 H         1 <0>         0.0723
     43 H11         0.1152   -5.6155    6.6469 H         1 <0>         0.0826
     44 H12        -1.0613   -1.1754    5.7452 H         1 <0>         0.4035
     45 H13        -2.6906   -1.5832    5.7025 H         1 <0>         0.4037
     46 H14         1.5397   -1.8449   -4.1488 H         1 <0>         0.0964
     47 H15         0.8682   -1.3147   -5.7096 H         1 <0>         0.0951
     48 H16         2.0133    0.8986   -5.3972 H         1 <0>         0.0752
     49 H17         3.1846   -0.5372   -2.9737 H         1 <0>         0.0656
     50 H18         3.8095    0.9915   -3.6376 H         1 <0>         0.0626
     51 H19         2.1660    0.9224   -2.9575 H         1 <0>         0.0527
     52 H20         3.0770   -0.9164   -6.7098 H         1 <0>         0.0581
     53 H21         4.2988    0.0483   -5.8469 H         1 <0>         0.0654
     54 H22         3.8261   -1.5511   -5.2251 H         1 <0>         0.0614
     55 H23        -0.9400   -0.6063   -7.5577 H         1 <0>         0.0700
     56 H24        -2.1821   -0.9210   -6.3185 H         1 <0>         0.0818
     57 H25        -3.1024    0.0501   -8.4765 H         1 <0>         0.1063
     58 H26        -3.4689    1.0226   -7.0303 H         1 <0>         0.0599
     59 H27        -1.0151    3.5554   -7.8534 H         1 <0>         0.1065
     60 H28        -2.2505    3.0687   -6.6666 H         1 <0>         0.0599
     61 H29        -0.0695    2.6451   -5.6838 H         1 <0>         0.0823
     62 H30         0.4614    1.7592   -7.1366 H         1 <0>         0.0696
@<TRIPOS>BOND
     1    1    2 1
     2    1   34 1
     3    1   35 1
     4    1   36 1
     5    2    3 1
     6    2    4 1
     7    2   18 1
     8    4    5 2
     9    4    6 am
    10    6    7 1
    11    6   37 1
    12    7   11 1
    13    7    8 2
    14    8    9 1
    15    8   15 1
    16    9   14 1
    17    9   10 2
    18   10   11 1
    19   10   12 1
    20   12   13 1
    21   12   38 1
    22   12   39 1
    23   13   14 1
    24   13   40 1
    25   13   41 1
    26   14   42 1
    27   14   43 1
    28   15   16 2
    29   15   17 am
    30   17   44 1
    31   17   45 1
    32   18   19 1
    33   19   23 1
    34   19   20 2
    35   20   21 1
    36   21   22 2
    37   22   23 1
    38   22   28 1
    39   23   24 1
    40   24   25 1
    41   24   46 1
    42   24   47 1
    43   25   26 1
    44   25   27 1
    45   25   48 1
    46   26   49 1
    47   26   50 1
    48   26   51 1
    49   27   52 1
    50   27   53 1
    51   27   54 1
    52   28   33 1
    53   28   29 1
    54   29   30 1
    55   29   55 1
    56   29   56 1
    57   30   31 1
    58   30   57 1
    59   30   58 1
    60   31   32 1
    61   32   33 1
    62   32   59 1
    63   32   60 1
    64   33   61 1
    65   33   62 1
@<TRIPOS>MOLECULE
ZINC03380265
   49    52     0     0     0
SMALL
USER_CHARGES

@<TRIPOS>ATOM
      1 C1         -0.0173    1.4248    0.0099 C.3       1 <0>         0.0244
      2 O1          0.0021   -0.0041    0.0020 O.3       1 <0>        -0.3137
      3 C2          0.6056   -0.6069   -1.0554 C.ar      1 <0>         0.1421
      4 C3          1.1724    0.1642   -2.0615 C.ar      1 <0>        -0.2059
      5 C4          1.7861   -0.4443   -3.1357 C.ar      1 <0>        -0.0612
      6 C5          1.8371   -1.8362   -3.2112 C.ar      1 <0>        -0.0831
      7 C6          1.2667   -2.6078   -2.1987 C.ar      1 <0>        -0.0466
      8 C7          0.6592   -1.9927   -1.1247 C.ar      1 <0>        -0.1482
      9 C8          2.4949   -2.4933   -4.3636 C.2       1 <0>         0.2148
     10 C9          2.5866   -3.8113   -4.5222 C.2       1 <0>        -0.2851
     11 C10         3.3257   -4.0602   -5.8179 C.3       1 <0>         0.2793
     12 H1          2.6938   -4.6092   -6.5160 H         1 <0>         0.1207
     13 N1          3.6238   -2.7177   -6.3429 N.am      1 <0>        -0.4035
     14 N2          3.0882   -1.8118   -5.4173 N.pl3     1 <0>        -0.5501
     15 C11         4.2750   -2.4200   -7.4847 C.2       1 <0>         0.5591
     16 O2          4.6839   -3.3105   -8.1994 O.2       1 <0>        -0.4959
     17 C12         4.4951   -0.9807   -7.8734 C.3       1 <0>        -0.1624
     18 S1          5.3935   -0.9101   -9.4477 S.3       1 <0>         0.1448
     19 C13         5.5701    0.8148   -9.7607 C.2       1 <0>         0.1997
     20 N3          5.1410    1.7943   -8.9992 N.2       1 <0>        -0.2835
     21 N4          5.4412    2.9249   -9.5316 N.2       1 <0>        -0.1928
     22 C14         6.0742    2.7364  -10.6548 C.2       1 <0>         0.0442
     23 N5          6.1844    1.3857  -10.8383 N.pl3     1 <0>        -0.2788
     24 N6          6.7819    0.7414  -11.8841 N.3       1 <0>        -0.5810
     25 C15         6.5944    3.8084  -11.5775 C.3       1 <0>         0.5713
     26 F1          6.6084    5.0354  -10.9057 F         1 <0>        -0.1383
     27 F2          7.8934    3.4841  -11.9835 F         1 <0>        -0.1648
     28 F3          5.7644    3.9006  -12.6999 F         1 <0>        -0.1589
     29 C16         4.6010   -4.8196   -5.5572 C.2       1 <0>        -0.0182
     30 C17         4.7882   -6.1361   -5.7601 C.2       1 <0>        -0.1901
     31 C18         6.1212   -6.4227   -5.3861 C.2       1 <0>        -0.2111
     32 C19         6.6689   -5.2642   -4.9771 C.2       1 <0>        -0.0383
     33 O3          5.7453   -4.2955   -5.0883 O.3       1 <0>        -0.1678
     34 H2          1.0053    1.8021    0.0021 H         1 <0>         0.0581
     35 H3         -0.5445    1.7859   -0.8732 H         1 <0>         0.0583
     36 H4         -0.5275    1.7763    0.9067 H         1 <0>         0.1036
     37 H5          1.1322    1.2418   -2.0026 H         1 <0>         0.1341
     38 H6          2.2264    0.1561   -3.9180 H         1 <0>         0.1237
     39 H7          1.3041   -3.6857   -2.2542 H         1 <0>         0.1401
     40 H8          0.2213   -2.5894   -0.3382 H         1 <0>         0.1393
     41 H9          2.2038   -4.5645   -3.8495 H         1 <0>         0.1667
     42 H10         3.1286   -0.8462   -5.5000 H         1 <0>         0.4319
     43 H11         3.5319   -0.4823   -7.9820 H         1 <0>         0.1307
     44 H12         5.0778   -0.4805   -7.0998 H         1 <0>         0.1305
     45 H13         6.1220    0.5703  -12.6280 H         1 <0>         0.3774
     46 H14         7.5793    1.2601  -12.2204 H         1 <0>         0.3850
     47 H15         4.0598   -6.8393   -6.1360 H         1 <0>         0.1493
     48 H16         6.6065   -7.3869   -5.4217 H         1 <0>         0.1491
     49 H17         7.6809   -5.1343   -4.6230 H         1 <0>         0.2012
@<TRIPOS>BOND
     1    1    2 1
     2    1   34 1
     3    1   35 1
     4    1   36 1
     5    2    3 1
     6    3    8 ar
     7    3    4 ar
     8    4    5 ar
     9    4   37 1
    10    5    6 ar
    11    5   38 1
    12    6    7 ar
    13    6    9 1
    14    7    8 ar
    15    7   39 1
    16    8   40 1
    17    9   14 1
    18    9   10 2
    19   10   11 1
    20   10   41 1
    21   11   12 1
    22   11   13 1
    23   11   29 1
    24   13   14 1
    25   13   15 am
    26   14   42 1
    27   15   16 2
    28   15   17 1
    29   17   18 1
    30   17   43 1
    31   17   44 1
    32   18   19 1
    33   19   23 1
    34   19   20 2
    35   20   21 1
    36   21   22 2
    37   22   23 1
    38   22   25 1
    39   23   24 1
    40   24   45 1
    41   24   46 1
    42   25   26 1
    43   25   27 1
    44   25   28 1
    45   29   33 1
    46   29   30 2
    47   30   31 1
    48   30   47 1
    49   31   32 2
    50   31   48 1
    51   32   33 1
    52   32   49 1
@<TRIPOS>MOLECULE
ZINC15276102
   62    65     0     0     0
SMALL
USER_CHARGES

@<TRIPOS>ATOM
      1 C1          0.0967    1.4008   -0.1816 C.3       1 <0>        -0.1464
      2 C2         -0.2033    0.0361    0.4417 C.3       1 <0>        -0.0964
      3 C3          0.3959   -0.0251    1.8481 C.3       1 <0>        -0.1737
      4 C4         -1.7178   -0.1654    0.5234 C.3       1 <0>        -0.1109
      5 C5         -2.0184   -1.5979    0.9691 C.3       1 <0>        -0.0099
      6 C6         -3.5257   -1.8981    0.8331 C.3       1 <0>        -0.1120
      7 H1         -4.1424   -1.0053    0.9371 H         1 <0>         0.1682
      8 C7         -3.6733   -2.5742   -0.5564 C.3       1 <0>        -0.1299
      9 H2         -4.3787   -2.0563   -1.2063 H         1 <0>         0.1735
     10 C8         -2.2437   -2.6042   -1.1358 C.3       1 <0>         0.1038
     11 H3         -2.0755   -1.7389   -1.7769 H         1 <0>         0.1667
     12 N1         -1.3568   -2.5712    0.0632 N.4       1 <0>        -0.5014
     13 C9         -2.0161   -3.8793   -1.9063 C.ar      1 <0>        -0.1170
     14 C10        -1.3862   -4.9505   -1.2997 C.ar      1 <0>        -0.1502
     15 C11        -1.1759   -6.1213   -2.0035 C.ar      1 <0>        -0.0599
     16 C12        -1.5941   -6.2265   -3.3174 C.ar      1 <0>        -0.1752
     17 C13        -2.2257   -5.1571   -3.9309 C.ar      1 <0>         0.1219
     18 C14        -2.4430   -3.9801   -3.2202 C.ar      1 <0>         0.1226
     19 O1         -3.0676   -2.9295   -3.8164 O.3       1 <0>        -0.4770
     20 O2         -2.6375   -5.2589   -5.2230 O.3       1 <0>        -0.3022
     21 C15        -2.3863   -6.4984   -5.8882 C.3       1 <0>         0.0224
     22 C16        -4.1172   -3.9790   -0.2160 C.2       1 <0>         0.5276
     23 O3         -4.3503   -4.8547   -1.0213 O.2       1 <0>        -0.4382
     24 N2         -4.2120   -4.1051    1.1127 N.am      1 <0>        -0.5208
     25 C17        -3.9063   -2.9869    1.8109 C.2       1 <0>         0.5190
     26 O4         -3.9285   -2.8690    3.0173 O.2       1 <0>        -0.3933
     27 C18        -4.6043   -5.3000    1.7358 C.ar      1 <0>         0.0731
     28 C19        -3.6515   -6.2403    2.0985 C.ar      1 <0>        -0.0559
     29 C20        -4.0399   -7.4159    2.7123 C.ar      1 <0>        -0.1461
     30 C21        -5.3775   -7.6583    2.9660 C.ar      1 <0>        -0.0609
     31 C22        -6.3327   -6.7259    2.6073 C.ar      1 <0>        -0.2021
     32 C23        -5.9507   -5.5419    1.9966 C.ar      1 <0>         0.1500
     33 O5         -6.8884   -4.6213    1.6483 O.3       1 <0>        -0.3134
     34 C24        -8.2498   -4.9371    1.9466 C.3       1 <0>         0.0257
     35 C25        -1.5643   -1.8107    2.3902 C.2       1 <0>         0.5141
     36 O6         -1.9301   -1.0475    3.2678 O.co2     1 <0>        -0.6034
     37 O7         -0.8312   -2.7461    2.6623 O.co2     1 <0>        -0.6687
     38 H4          1.1756    1.5444   -0.2398 H         1 <0>         0.0620
     39 H5         -0.3302    1.4444   -1.1835 H         1 <0>         0.0552
     40 H6         -0.3416    2.1859    0.4346 H         1 <0>         0.0650
     41 H7          0.2349   -0.7490   -0.1745 H         1 <0>         0.0500
     42 H8          0.3747   -1.0539    2.2076 H         1 <0>         0.0833
     43 H9          1.4265    0.3286    1.8196 H         1 <0>         0.0535
     44 H10        -0.1865    0.6063    2.5190 H         1 <0>         0.0733
     45 H11        -2.1392    0.5353    1.2442 H         1 <0>         0.1203
     46 H12        -2.1612    0.0108   -0.4566 H         1 <0>         0.0786
     47 H13        -0.4366   -2.2460   -0.1928 H         1 <0>         0.4278
     48 H14        -1.0576   -4.8720   -0.2740 H         1 <0>         0.1197
     49 H15        -0.6836   -6.9558   -1.5263 H         1 <0>         0.1394
     50 H16        -1.4279   -7.1422   -3.8653 H         1 <0>         0.1412
     51 H17        -2.4676   -2.3188   -4.2660 H         1 <0>         0.3901
     52 H18        -1.3135   -6.6900   -5.9068 H         1 <0>         0.0591
     53 H19        -2.8903   -7.3051   -5.3558 H         1 <0>         0.0600
     54 H20        -2.7638   -6.4457   -6.9094 H         1 <0>         0.1068
     55 H21        -2.6062   -6.0539    1.9010 H         1 <0>         0.1315
     56 H22        -3.2970   -8.1473    2.9943 H         1 <0>         0.1360
     57 H23        -5.6766   -8.5787    3.4452 H         1 <0>         0.1346
     58 H24        -7.3766   -6.9181    2.8068 H         1 <0>         0.1381
     59 H25        -8.5322   -5.8534    1.4282 H         1 <0>         0.0591
     60 H26        -8.3629   -5.0782    3.0215 H         1 <0>         0.0604
     61 H27        -8.8927   -4.1206    1.6177 H         1 <0>         0.1039
     62 H28        -1.3031   -3.4794    0.4996 H         1 <0>         0.4273
@<TRIPOS>BOND
     1    1    2 1
     2    1   38 1
     3    1   39 1
     4    1   40 1
     5    2    3 1
     6    2    4 1
     7    2   41 1
     8    3   42 1
     9    3   43 1
    10    3   44 1
    11    4    5 1
    12    4   45 1
    13    4   46 1
    14    5   12 1
    15    5    6 1
    16    5   35 1
    17    6    7 1
    18    6   25 1
    19    6    8 1
    20    8    9 1
    21    8   10 1
    22    8   22 1
    23   10   11 1
    24   10   12 1
    25   10   13 1
    26   12   47 1
    27   12   62 1
    28   13   18 ar
    29   13   14 ar
    30   14   15 ar
    31   14   48 1
    32   15   16 ar
    33   15   49 1
    34   16   17 ar
    35   16   50 1
    36   17   18 ar
    37   17   20 1
    38   18   19 1
    39   19   51 1
    40   20   21 1
    41   21   52 1
    42   21   53 1
    43   21   54 1
    44   22   23 2
    45   22   24 am
    46   24   25 am
    47   24   27 1
    48   25   26 2
    49   27   32 ar
    50   27   28 ar
    51   28   29 ar
    52   28   55 1
    53   29   30 ar
    54   29   56 1
    55   30   31 ar
    56   30   57 1
    57   31   32 ar
    58   31   58 1
    59   32   33 1
    60   33   34 1
    61   34   59 1
    62   34   60 1
    63   34   61 1
    64   35   36 2
    65   35   37 1
@<TRIPOS>MOLECULE
ZINC08835172
   50    53     0     0     0
SMALL
USER_CHARGES
3,5-dichloro-N-[[4-hydroxy-3-(6-methylbenzooxazol-2-yl)-phenyl]thiocarbamoyl]-4-methoxy-benzamide
@<TRIPOS>ATOM
      1 C1         16.6415    2.9354    0.4891 C.3       1 <0>        -0.1151
      2 C2         15.1377    3.0021    0.4183 C.ar      1 <0>        -0.0571
      3 C3         14.5027    4.2354    0.4150 C.ar      1 <0>        -0.1179
      4 C4         13.1296    4.3125    0.3511 C.ar      1 <0>        -0.0573
      5 C5         12.3721    3.1402    0.2893 C.ar      1 <0>         0.0186
      6 C6         13.0193    1.8939    0.2929 C.ar      1 <0>         0.0154
      7 C7         14.4027    1.8361    0.3576 C.ar      1 <0>        -0.0955
      8 O1         12.0458    0.9580    0.2313 O.3       1 <0>        -0.1933
      9 C8         10.8583    1.5912    0.1832 C.2       1 <0>         0.2981
     10 N1         11.0396    2.8876    0.2202 N.2       1 <0>        -0.4715
     11 C9          9.5445    0.9219    0.1063 C.ar      1 <0>        -0.0564
     12 C10         8.3730    1.6797    0.0669 C.ar      1 <0>        -0.0488
     13 C11         7.1442    1.0452   -0.0056 C.ar      1 <0>         0.1089
     14 C12         7.0761   -0.3433   -0.0335 C.ar      1 <0>        -0.0285
     15 C13         8.2318   -1.0983   -0.0006 C.ar      1 <0>        -0.1376
     16 C14         9.4682   -0.4761    0.0720 C.ar      1 <0>         0.1601
     17 O2         10.6035   -1.2207    0.1104 O.3       1 <0>        -0.4833
     18 N2          5.9671    1.8038   -0.0452 N.pl3     1 <0>        -0.6182
     19 C15         4.9678    1.4541   -0.8792 C.2       1 <0>         0.5091
     20 S1          5.1897    0.1707   -1.9903 S.2       1 <0>        -0.4679
     21 N3          3.7937    2.1148   -0.8385 N.am      1 <0>        -0.6382
     22 C16         2.7944    1.7650   -1.6725 C.2       1 <0>         0.5416
     23 O3          2.9520    0.8538   -2.4614 O.2       1 <0>        -0.3881
     24 C17         1.5094    2.4882   -1.6280 C.ar      1 <0>        -0.1196
     25 C18         0.4719    2.1270   -2.4921 C.ar      1 <0>        -0.0264
     26 C19        -0.7252    2.8086   -2.4514 C.ar      1 <0>        -0.0537
     27 C20        -0.9052    3.8477   -1.5449 C.ar      1 <0>         0.1486
     28 C21         0.1247    4.2100   -0.6836 C.ar      1 <0>        -0.0541
     29 C22         1.3264    3.5365   -0.7219 C.ar      1 <0>        -0.0653
     30 Cl1        -0.1039    5.5119    0.4418 Cl        1 <0>        -0.0289
     31 O4         -2.0877    4.5132   -1.5039 O.3       1 <0>        -0.3179
     32 C23        -2.2184    5.6566   -2.3510 C.3       1 <0>         0.0333
     33 Cl2        -2.0122    2.3652   -3.5287 Cl        1 <0>        -0.0238
     34 H1         17.0534    2.9416   -0.5201 H         1 <0>         0.0778
     35 H2         17.0179    3.7971    1.0404 H         1 <0>         0.0739
     36 H3         16.9410    2.0193    0.9981 H         1 <0>         0.0716
     37 H4         15.0893    5.1410    0.4628 H         1 <0>         0.1388
     38 H5         12.6400    5.2751    0.3488 H         1 <0>         0.1373
     39 H6         14.9045    0.8798    0.3603 H         1 <0>         0.1368
     40 H7          8.4247    2.7581    0.0927 H         1 <0>         0.1479
     41 H8          6.1152   -0.8335   -0.0857 H         1 <0>         0.1526
     42 H9          8.1720   -2.1763   -0.0271 H         1 <0>         0.1488
     43 H10        10.8898   -1.4557    1.0036 H         1 <0>         0.3981
     44 H11         5.8712    2.5807    0.5277 H         1 <0>         0.4112
     45 H12         3.6680    2.8419   -0.2090 H         1 <0>         0.4107
     46 H13         0.6097    1.3177   -3.1938 H         1 <0>         0.1648
     47 H14         2.1259    3.8187   -0.0529 H         1 <0>         0.1446
     48 H15        -2.0876    5.3556   -3.3904 H         1 <0>         0.0550
     49 H16        -3.2084    6.0937   -2.2212 H         1 <0>         0.1070
     50 H17        -1.4588    6.3926   -2.0875 H         1 <0>         0.0539
@<TRIPOS>BOND
     1    1    2 1
     2    1   34 1
     3    1   35 1
     4    1   36 1
     5    2    7 ar
     6    2    3 ar
     7    3    4 ar
     8    3   37 1
     9    4    5 ar
    10    4   38 1
    11    5   10 1
    12    5    6 ar
    13    6    7 ar
    14    6    8 1
    15    7   39 1
    16    8    9 1
    17    9   10 2
    18    9   11 1
    19   11   16 ar
    20   11   12 ar
    21   12   13 ar
    22   12   40 1
    23   13   14 ar
    24   13   18 1
    25   14   15 ar
    26   14   41 1
    27   15   16 ar
    28   15   42 1
    29   16   17 1
    30   17   43 1
    31   18   19 1
    32   18   44 1
    33   19   20 2
    34   19   21 1
    35   21   22 am
    36   21   45 1
    37   22   23 2
    38   22   24 1
    39   24   29 ar
    40   24   25 ar
    41   25   26 ar
    42   25   46 1
    43   26   27 ar
    44   26   33 1
    45   27   28 ar
    46   27   31 1
    47   28   29 ar
    48   28   30 1
    49   29   47 1
    50   31   32 1
    51   32   48 1
    52   32   49 1
    53   32   50 1
@<TRIPOS>MOLECULE
ZINC16610183
   63    65     0     0     0
SMALL
USER_CHARGES
isobutyl (4S)-1,6-dimethyl-4-[4-(o-tolylcarbamoylamino)phenyl]-2-thioxo-3,4-dihydropyrimidine-5-carboxylate
@<TRIPOS>ATOM
      1 C1          3.5545    3.0417   -0.4383 C.3       1 <0>        -0.1150
      2 C2          3.4559    2.1163    0.7471 C.ar      1 <0>        -0.1189
      3 C3          4.6019    1.6984    1.3952 C.ar      1 <0>        -0.0995
      4 C4          4.5123    0.8490    2.4825 C.ar      1 <0>        -0.1339
      5 C5          3.2758    0.4155    2.9249 C.ar      1 <0>        -0.1028
      6 C6          2.1261    0.8334    2.2843 C.ar      1 <0>        -0.1265
      7 C7          2.2130    1.6824    1.1885 C.ar      1 <0>         0.1612
      8 N1          1.0501    2.1043    0.5344 N.am      1 <0>        -0.6762
      9 C8         -0.0692    1.3564    0.6003 C.2       1 <0>         0.7034
     10 O1         -0.0417    0.2673    1.1402 O.2       1 <0>        -0.5487
     11 N2         -1.2176    1.8134    0.0629 N.am      1 <0>        -0.6821
     12 C9         -2.4003    1.0805    0.2123 C.ar      1 <0>         0.1716
     13 C10        -2.3636   -0.3077    0.2106 C.ar      1 <0>        -0.1193
     14 C11        -3.5320   -1.0281    0.3630 C.ar      1 <0>        -0.0791
     15 C12        -4.7389   -0.3686    0.5064 C.ar      1 <0>        -0.1318
     16 C13        -4.7795    1.0137    0.5038 C.ar      1 <0>        -0.0546
     17 C14        -3.6139    1.7399    0.3570 C.ar      1 <0>        -0.1468
     18 C15        -6.0127   -1.1578    0.6663 C.3       1 <0>         0.2218
     19 H1         -6.7388   -0.5199    1.1704 H         1 <0>         0.1022
     20 C16        -6.5464   -1.4689   -0.7174 C.2       1 <0>        -0.2617
     21 C17        -6.7227   -2.7674   -1.0458 C.2       1 <0>         0.2384
     22 N3         -6.4306   -3.7639   -0.1604 N.pl3     1 <0>        -0.4946
     23 C18        -5.9573   -3.5464    1.0731 C.2       1 <0>         0.5485
     24 S1         -5.6323   -4.8893    2.0839 S.2       1 <0>        -0.5871
     25 N4         -5.7288   -2.3049    1.5451 N.pl3     1 <0>        -0.6449
     26 C19        -6.6466   -5.1497   -0.5835 C.3       1 <0>         0.0361
     27 C20        -7.2511   -3.1212   -2.4121 C.3       1 <0>        -0.1252
     28 C21        -6.8495   -0.4352   -1.6336 C.2       1 <0>         0.5360
     29 O2         -7.2771   -0.7086   -2.7396 O.2       1 <0>        -0.5108
     30 O3         -6.6647    0.8543   -1.2814 O.3       1 <0>        -0.3400
     31 C22        -6.9917    1.8464   -2.2565 C.3       1 <0>         0.0706
     32 C23        -6.7184    3.2372   -1.6805 C.3       1 <0>        -0.0939
     33 C24        -6.9492    4.2924   -2.7641 C.3       1 <0>        -0.1479
     34 C25        -7.6634    3.4974   -0.5057 C.3       1 <0>        -0.1494
     35 H2          3.5183    4.0759   -0.0958 H         1 <0>         0.0713
     36 H3          4.4948    2.8645   -0.9603 H         1 <0>         0.0732
     37 H4          2.7217    2.8540   -1.1160 H         1 <0>         0.0603
     38 H5          5.5689    2.0358    1.0525 H         1 <0>         0.1263
     39 H6          5.4098    0.5237    2.9875 H         1 <0>         0.1237
     40 H7          3.2090   -0.2477    3.7747 H         1 <0>         0.1258
     41 H8          1.1605    0.4975    2.6326 H         1 <0>         0.1470
     42 H9          1.0496    2.9350    0.0335 H         1 <0>         0.4081
     43 H10        -1.2243    2.6503   -0.4274 H         1 <0>         0.4088
     44 H11        -1.4218   -0.8234    0.0941 H         1 <0>         0.1416
     45 H12        -3.5036   -2.1077    0.3658 H         1 <0>         0.1162
     46 H13        -5.7236    1.5259    0.6163 H         1 <0>         0.1375
     47 H14        -3.6462    2.8194    0.3550 H         1 <0>         0.1278
     48 H15        -5.3858   -2.1701    2.4424 H         1 <0>         0.4480
     49 H16        -6.3693   -5.8243    0.2265 H         1 <0>         0.1416
     50 H17        -7.6979   -5.2939   -0.8326 H         1 <0>         0.0872
     51 H18        -6.0333   -5.3620   -1.4593 H         1 <0>         0.0868
     52 H19        -7.3294   -4.2047   -2.5020 H         1 <0>         0.0788
     53 H20        -8.2354   -2.6733   -2.5482 H         1 <0>         0.1082
     54 H21        -6.5706   -2.7416   -3.1743 H         1 <0>         0.1075
     55 H22        -6.3814    1.6956   -3.1470 H         1 <0>         0.0672
     56 H23        -8.0460    1.7631   -2.5202 H         1 <0>         0.0683
     57 H24        -5.6860    3.2910   -1.3350 H         1 <0>         0.0819
     58 H25        -7.9817    4.2387   -3.1095 H         1 <0>         0.0590
     59 H26        -6.7545    5.2833   -2.3537 H         1 <0>         0.0655
     60 H27        -6.2760    4.1071   -3.6010 H         1 <0>         0.0580
     61 H28        -7.4687    4.4882   -0.0953 H         1 <0>         0.0587
     62 H29        -8.6958    3.4436   -0.8511 H         1 <0>         0.0556
     63 H30        -7.4990    2.7456    0.2663 H         1 <0>         0.0608
@<TRIPOS>BOND
     1    1    2 1
     2    1   35 1
     3    1   36 1
     4    1   37 1
     5    2    7 ar
     6    2    3 ar
     7    3    4 ar
     8    3   38 1
     9    4    5 ar
    10    4   39 1
    11    5    6 ar
    12    5   40 1
    13    6    7 ar
    14    6   41 1
    15    7    8 1
    16    8    9 am
    17    8   42 1
    18    9   10 2
    19    9   11 am
    20   11   12 1
    21   11   43 1
    22   12   17 ar
    23   12   13 ar
    24   13   14 ar
    25   13   44 1
    26   14   15 ar
    27   14   45 1
    28   15   16 ar
    29   15   18 1
    30   16   17 ar
    31   16   46 1
    32   17   47 1
    33   18   19 1
    34   18   25 1
    35   18   20 1
    36   20   21 2
    37   20   28 1
    38   21   22 1
    39   21   27 1
    40   22   23 1
    41   22   26 1
    42   23   24 2
    43   23   25 1
    44   25   48 1
    45   26   49 1
    46   26   50 1
    47   26   51 1
    48   27   52 1
    49   27   53 1
    50   27   54 1
    51   28   29 2
    52   28   30 1
    53   30   31 1
    54   31   32 1
    55   31   55 1
    56   31   56 1
    57   32   33 1
    58   32   34 1
    59   32   57 1
    60   33   58 1
    61   33   59 1
    62   33   60 1
    63   34   61 1
    64   34   62 1
    65   34   63 1
@<TRIPOS>MOLECULE
ZINC21459549
   48    50     0     0     0
SMALL
USER_CHARGES
(2S)-2-[[4-amino-5-(4-methoxyphenyl)-1,2,4-triazol-3-yl]sulfanyl]-N-[4-chloro-3-(trifluoromethyl)phenyl]propanamide
@<TRIPOS>ATOM
      1 C1         -3.3015    3.7423   -1.2109 C.3       1 <0>        -0.1519
      2 C2         -3.6184    3.1980    0.1834 C.3       1 <0>        -0.1088
      3 H1         -3.3902    4.0258    0.8709 H         1 <0>         0.1302
      4 C3         -5.1072    3.0113    0.3233 C.2       1 <0>         0.5369
      5 O1         -5.5950    1.9085    0.1925 O.2       1 <0>        -0.5043
      6 N1         -5.8967    4.0696    0.5938 N.am      1 <0>        -0.6783
      7 C4         -7.2880    3.9177    0.6147 C.ar      1 <0>         0.1599
      8 C5         -7.9022    3.0159   -0.2446 C.ar      1 <0>        -0.0800
      9 C6         -9.2745    2.8645   -0.2186 C.ar      1 <0>        -0.0870
     10 C7        -10.0387    3.6180    0.6553 C.ar      1 <0>        -0.0093
     11 C8         -9.4297    4.5209    1.5087 C.ar      1 <0>        -0.1562
     12 C9         -8.0568    4.6724    1.4904 C.ar      1 <0>        -0.0882
     13 C10       -10.2648    5.3394    2.4593 C.3       1 <0>         0.5110
     14 F1         -9.4315    6.1728    3.2131 F         1 <0>        -0.1741
     15 F2        -11.1698    6.1197    1.7317 F         1 <0>        -0.1677
     16 F3        -10.9685    4.4857    3.3155 F         1 <0>        -0.1676
     17 Cl1       -11.7643    3.4297    0.6811 Cl        1 <0>        -0.0401
     18 S1         -2.7865    1.6071    0.4135 S.3       1 <0>         0.0937
     19 C11        -1.1048    2.1295    0.3529 C.2       1 <0>         0.1161
     20 N2         -0.6766    3.3605    0.1863 N.2       1 <0>        -0.2751
     21 N3          0.6082    3.3848    0.1865 N.2       1 <0>        -0.2573
     22 C12         1.0795    2.1717    0.3585 C.2       1 <0>         0.2090
     23 N4         -0.0031    1.3306    0.4737 N.pl3     1 <0>        -0.2082
     24 N5          0.0189   -0.0220    0.6632 N.3       1 <0>        -0.7666
     25 C13         2.5044    1.7828    0.4169 C.ar      1 <0>        -0.0491
     26 C14         2.8682    0.5304    0.9150 C.ar      1 <0>        -0.0742
     27 C15         4.1978    0.1697    0.9633 C.ar      1 <0>        -0.2011
     28 C16         5.1754    1.0540    0.5267 C.ar      1 <0>         0.1436
     29 C17         4.8181    2.3029    0.0359 C.ar      1 <0>        -0.1426
     30 C18         3.4903    2.6692   -0.0206 C.ar      1 <0>        -0.0339
     31 O2          6.4852    0.6965    0.5804 O.3       1 <0>        -0.3116
     32 C19         6.7825   -0.6025    1.0963 C.3       1 <0>         0.0203
     33 H2         -2.2148    3.8786   -1.3130 H         1 <0>         0.0967
     34 H3         -3.8070    4.7092   -1.3507 H         1 <0>         0.0748
     35 H4         -3.6549    3.0304   -1.9714 H         1 <0>         0.0709
     36 H5         -5.4477    5.0528    0.7982 H         1 <0>         0.4457
     37 H6         -7.3068    2.4309   -0.9298 H         1 <0>         0.1536
     38 H7         -9.7524    2.1606   -0.8840 H         1 <0>         0.1517
     39 H8         -7.5820    5.3776    2.1565 H         1 <0>         0.1531
     40 H9          0.9802   -0.5503    0.7450 H         1 <0>         0.4437
     41 H10        -0.9247   -0.5829    0.7340 H         1 <0>         0.4449
     42 H11         2.1088   -0.1565    1.2582 H         1 <0>         0.1251
     43 H12         4.4798   -0.8006    1.3447 H         1 <0>         0.1377
     44 H13         5.5814    2.9880   -0.3023 H         1 <0>         0.1430
     45 H14         3.2132    3.6406   -0.4025 H         1 <0>         0.1473
     46 H15         7.8709   -0.7617    1.0839 H         1 <0>         0.1060
     47 H16         6.2932   -1.3654    0.4729 H         1 <0>         0.0592
     48 H17         6.4123   -0.6803    2.1292 H         1 <0>         0.0593
@<TRIPOS>BOND
     1    1    2 1
     2    1   33 1
     3    1   34 1
     4    1   35 1
     5    2    3 1
     6    2    4 1
     7    2   18 1
     8    4    5 2
     9    4    6 am
    10    6    7 1
    11    6   36 1
    12    7   12 ar
    13    7    8 ar
    14    8    9 ar
    15    8   37 1
    16    9   10 ar
    17    9   38 1
    18   10   11 ar
    19   10   17 1
    20   11   12 ar
    21   11   13 1
    22   12   39 1
    23   13   14 1
    24   13   15 1
    25   13   16 1
    26   18   19 1
    27   19   23 1
    28   19   20 2
    29   20   21 1
    30   21   22 2
    31   22   23 1
    32   22   25 1
    33   23   24 1
    34   24   40 1
    35   24   41 1
    36   25   30 ar
    37   25   26 ar
    38   26   27 ar
    39   26   42 1
    40   27   28 ar
    41   27   43 1
    42   28   29 ar
    43   28   31 1
    44   29   30 ar
    45   29   44 1
    46   30   45 1
    47   31   32 1
    48   32   46 1
    49   32   47 1
    50   32   48 1
@<TRIPOS>MOLECULE
ZINC35271262
   75    77     0     0     0
SMALL
USER_CHARGES

@<TRIPOS>ATOM
      1 C1         -0.4433    1.5943    0.0158 C.3       1 <0>        -0.1254
      2 C2         -0.1028    0.1265    0.0448 C.2       1 <0>        -0.0718
      3 C3          0.5348   -0.3881    1.0935 C.2       1 <0>        -0.1594
      4 C4          0.8753   -1.8558    1.1224 C.3       1 <0>        -0.1049
      5 C5          0.9067    0.4749    2.2232 C.2       1 <0>         0.5039
      6 O1          0.6321    1.6586    2.1999 O.2       1 <0>        -0.4996
      7 O2          1.5525   -0.0464    3.2855 O.3       1 <0>        -0.2899
      8 C6          1.8833    0.8504    4.3477 C.3       1 <0>         0.0863
      9 H1          1.1434    1.6495    4.3935 H         1 <0>         0.0970
     10 C7          3.2702    1.4507    4.0977 C.3       1 <0>         0.0940
     11 H2          3.5020    2.1719    4.8814 H         1 <0>         0.0789
     12 C8          4.3109    0.3269    4.1114 C.3       1 <0>         0.0485
     13 H3          5.3073    0.7516    3.9892 H         1 <0>         0.0646
     14 C9          4.2315   -0.4154    5.4479 C.3       1 <0>         0.0601
     15 H4          4.4745    0.2704    6.2596 H         1 <0>         0.0646
     16 O3          2.9080   -0.9218    5.6321 O.3       1 <0>        -0.3645
     17 C10         1.8961    0.0882    5.6754 C.3       1 <0>         0.2579
     18 H5          2.1086    0.7806    6.4900 H         1 <0>         0.0727
     19 O4          0.6208   -0.5206    5.8877 O.3       1 <0>        -0.3221
     20 C11         0.4483   -1.0670    7.1968 C.3       1 <0>         0.1189
     21 C12         1.5175   -2.1297    7.4475 C.3       1 <0>        -0.1373
     22 C13         1.3803   -3.2330    6.3948 C.3       1 <0>        -0.1407
     23 C14        -0.0010   -3.8740    6.5221 C.3       1 <0>         0.1130
     24 H6         -0.1137   -4.2947    7.5213 H         1 <0>         0.0437
     25 C15        -1.0911   -2.8244    6.2870 C.3       1 <0>        -0.0344
     26 C16        -0.9465   -1.6891    7.3078 C.3       1 <0>        -0.0553
     27 H7         -1.1036   -2.0729    8.3158 H         1 <0>         0.0849
     28 C17        -1.9804   -0.6052    6.9795 C.3       1 <0>        -0.0755
     29 C18        -3.3373   -1.2112    6.7875 C.2       1 <0>        -0.1139
     30 C19        -3.5428   -2.4703    6.5714 C.2       1 <0>        -0.1542
     31 C20        -2.4535   -3.4964    6.4973 C.3       1 <0>        -0.0765
     32 C21        -4.5352   -0.2990    6.8504 C.3       1 <0>        -0.0630
     33 C22        -4.5917    0.3747    8.2229 C.3       1 <0>        -0.1442
     34 C23        -4.4200    0.7699    5.7619 C.3       1 <0>        -0.1439
     35 C24        -0.9920   -2.2782    4.8613 C.3       1 <0>        -0.1329
     36 O5         -0.1317   -4.9151    5.5520 O.3       1 <0>        -0.5609
     37 C25         0.5909    0.0478    8.2349 C.3       1 <0>        -0.1851
     38 C26         5.2270   -1.5772    5.4463 C.3       1 <0>        -0.1479
     39 O6          4.0453   -0.5830    3.0419 O.3       1 <0>        -0.5228
     40 O7          3.2862    2.1040    2.8269 O.3       1 <0>        -0.5335
     41 H8          0.4729    2.1811    0.0810 H         1 <0>         0.0817
     42 H9         -0.9598    1.8291   -0.9149 H         1 <0>         0.0539
     43 H10        -1.0892    1.8341    0.8604 H         1 <0>         0.0796
     44 H11        -0.3761   -0.5077   -0.7856 H         1 <0>         0.1304
     45 H12         1.8593   -2.0094    0.6794 H         1 <0>         0.0682
     46 H13         0.8826   -2.2068    2.1543 H         1 <0>         0.0757
     47 H14         0.1302   -2.4130    0.5545 H         1 <0>         0.0623
     48 H15         2.5062   -1.6768    7.3744 H         1 <0>         0.0902
     49 H16         1.3825   -2.5555    8.4418 H         1 <0>         0.0612
     50 H17         1.4926   -2.8033    5.3994 H         1 <0>         0.0959
     51 H18         2.1492   -3.9886    6.5562 H         1 <0>         0.0556
     52 H19        -2.0203    0.1131    7.7984 H         1 <0>         0.0703
     53 H20        -1.6839   -0.0909    6.0654 H         1 <0>         0.0877
     54 H21        -4.5618   -2.8018    6.4363 H         1 <0>         0.0995
     55 H22        -2.6527   -4.1726    5.6658 H         1 <0>         0.0769
     56 H23        -2.4334   -4.0664    7.4261 H         1 <0>         0.0651
     57 H24        -5.4436   -0.8808    6.6936 H         1 <0>         0.0710
     58 H25        -3.6834    0.9565    8.3797 H         1 <0>         0.0556
     59 H26        -5.4582    1.0345    8.2684 H         1 <0>         0.0545
     60 H27        -4.6738   -0.3868    8.9984 H         1 <0>         0.0538
     61 H28        -4.3798    0.2899    4.7841 H         1 <0>         0.0543
     62 H29        -5.2865    1.4297    5.8074 H         1 <0>         0.0539
     63 H30        -3.5117    1.3517    5.9187 H         1 <0>         0.0554
     64 H31        -1.2633   -3.0607    4.1527 H         1 <0>         0.0469
     65 H32        -1.6716   -1.4336    4.7477 H         1 <0>         0.0494
     66 H33         0.0296   -1.9510    4.6678 H         1 <0>         0.0875
     67 H34         0.5215   -5.6222    5.6436 H         1 <0>         0.3729
     68 H35        -0.1671    0.8103    8.0557 H         1 <0>         0.0694
     69 H36         0.4596   -0.3673    9.2342 H         1 <0>         0.0714
     70 H37         1.5819    0.4946    8.1544 H         1 <0>         0.0574
     71 H38         6.2363   -1.1907    5.3049 H         1 <0>         0.0728
     72 H39         5.1703   -2.1056    6.3980 H         1 <0>         0.0707
     73 H40         4.9836   -2.2631    4.6349 H         1 <0>         0.0704
     74 H41         4.6672   -1.3216    2.9904 H         1 <0>         0.3704
     75 H42         4.1358    2.5079    2.6029 H         1 <0>         0.3788
@<TRIPOS>BOND
     1    1    2 1
     2    1   41 1
     3    1   42 1
     4    1   43 1
     5    2    3 2
     6    2   44 1
     7    3    4 1
     8    3    5 1
     9    4   45 1
    10    4   46 1
    11    4   47 1
    12    5    6 2
    13    5    7 1
    14    7    8 1
    15    8    9 1
    16    8   17 1
    17    8   10 1
    18   10   11 1
    19   10   12 1
    20   10   40 1
    21   12   13 1
    22   12   14 1
    23   12   39 1
    24   14   15 1
    25   14   16 1
    26   14   38 1
    27   16   17 1
    28   17   18 1
    29   17   19 1
    30   19   20 1
    31   20   26 1
    32   20   21 1
    33   20   37 1
    34   21   22 1
    35   21   48 1
    36   21   49 1
    37   22   23 1
    38   22   50 1
    39   22   51 1
    40   23   24 1
    41   23   25 1
    42   23   36 1
    43   25   31 1
    44   25   26 1
    45   25   35 1
    46   26   27 1
    47   26   28 1
    48   28   29 1
    49   28   52 1
    50   28   53 1
    51   29   30 2
    52   29   32 1
    53   30   31 1
    54   30   54 1
    55   31   55 1
    56   31   56 1
    57   32   33 1
    58   32   34 1
    59   32   57 1
    60   33   58 1
    61   33   59 1
    62   33   60 1
    63   34   61 1
    64   34   62 1
    65   34   63 1
    66   35   64 1
    67   35   65 1
    68   35   66 1
    69   36   67 1
    70   37   68 1
    71   37   69 1
    72   37   70 1
    73   38   71 1
    74   38   72 1
    75   38   73 1
    76   39   74 1
    77   40   75 1
@<TRIPOS>MOLECULE
ZINC40173191
   52    55     0     0     0
SMALL
USER_CHARGES

@<TRIPOS>ATOM
      1 C1          0.9056   -0.1833   -1.2218 C.3       1 <0>        -0.1527
      2 C2         -0.0052   -0.0303   -0.0020 C.3       1 <0>        -0.1367
      3 C3          0.6868   -0.6203    1.2285 C.3       1 <0>         0.1235
      4 H1          1.6682   -0.1614    1.3483 H         1 <0>         0.1404
      5 C4         -0.1480   -0.3480    2.4532 C.2       1 <0>         0.4915
      6 O1         -0.5156   -1.2675    3.1532 O.2       1 <0>        -0.4338
      7 N1         -0.4861    0.9175    2.7706 N.am      1 <0>        -0.6128
      8 C5         -1.3347    1.1607    3.8383 C.2       1 <0>         0.3619
      9 N2         -1.8998    0.3009    4.6533 N.2       1 <0>        -0.4988
     10 C6         -2.7128    0.6828    5.6618 C.ar      1 <0>         0.0917
     11 C7         -3.3798   -0.1350    6.6032 C.ar      1 <0>        -0.0569
     12 C8         -4.1761    0.4183    7.5714 C.ar      1 <0>        -0.1064
     13 C9         -4.3566    1.7909    7.6648 C.ar      1 <0>        -0.0618
     14 C10        -3.7191    2.6207    6.7610 C.ar      1 <0>        -0.0660
     15 C11        -2.9198    2.0754    5.7875 C.ar      1 <0>        -0.1399
     16 S1         -1.9322    2.7257    4.4614 S.3       1 <0>         0.0125
     17 C12        -5.2388    2.3712    8.7400 C.3       1 <0>        -0.1146
     18 N3          0.8419   -2.0667    1.0549 N.pl3     1 <0>        -0.4895
     19 C13        -0.1695   -2.9664    0.8712 C.2       1 <0>         0.5143
     20 N4          0.3638   -4.1576    0.7552 N.2       1 <0>        -0.3654
     21 N5          1.7538   -4.0226    0.8668 N.2       1 <0>        -0.2926
     22 C14         2.0244   -2.7520    1.0424 C.2       1 <0>         0.2003
     23 S2          3.6299   -2.0514    1.2325 S.3       1 <0>        -0.0026
     24 C15         4.7465   -3.4767    1.1219 C.3       1 <0>        -0.0609
     25 C16         6.1720   -3.0108    1.2708 C.ar      1 <0>        -0.0756
     26 C17         6.8987   -2.6411    0.1545 C.ar      1 <0>        -0.0846
     27 C18         8.2061   -2.2138    0.2910 C.ar      1 <0>        -0.1148
     28 C19         8.7878   -2.1558    1.5440 C.ar      1 <0>        -0.0957
     29 C20         8.0623   -2.5251    2.6607 C.ar      1 <0>        -0.1107
     30 C21         6.7516   -2.9476    2.5253 C.ar      1 <0>        -0.0181
     31 Cl1         5.8374   -3.4054    3.9283 Cl        1 <0>        -0.0545
     32 N6         -1.5255   -2.6704    0.8174 N.pl3     1 <0>        -0.8225
     33 H2          1.1805   -1.2313   -1.3408 H         1 <0>         0.0599
     34 H3          0.3792    0.1577   -2.1133 H         1 <0>         0.0711
     35 H4          1.8058    0.4147   -1.0803 H         1 <0>         0.0682
     36 H5         -0.2100    1.0267    0.1683 H         1 <0>         0.0946
     37 H6         -0.9423   -0.5579   -0.1797 H         1 <0>         0.0799
     38 H7         -0.1353    1.6580    2.2514 H         1 <0>         0.4310
     39 H8         -3.2606   -1.2075    6.5583 H         1 <0>         0.1349
     40 H9         -4.6749   -0.2288    8.2777 H         1 <0>         0.1363
     41 H10        -3.8492    3.6912    6.8208 H         1 <0>         0.1351
     42 H11        -4.6420    2.5746    9.6291 H         1 <0>         0.0774
     43 H12        -5.6855    3.2988    8.3821 H         1 <0>         0.0714
     44 H13        -6.0271    1.6598    8.9864 H         1 <0>         0.0734
     45 H14         4.5110   -4.1853    1.9159 H         1 <0>         0.1125
     46 H15         4.6221   -3.9615    0.1536 H         1 <0>         0.1123
     47 H16         6.4449   -2.6866   -0.8245 H         1 <0>         0.1377
     48 H17         8.7736   -1.9254   -0.5814 H         1 <0>         0.1343
     49 H18         9.8094   -1.8221    1.6500 H         1 <0>         0.1357
     50 H19         8.5169   -2.4800    3.6393 H         1 <0>         0.1377
     51 H20        -1.8259   -1.7532    0.9146 H         1 <0>         0.4031
     52 H21        -2.1720   -3.3808    0.6827 H         1 <0>         0.4255
@<TRIPOS>BOND
     1    1    2 1
     2    1   33 1
     3    1   34 1
     4    1   35 1
     5    2    3 1
     6    2   36 1
     7    2   37 1
     8    3    4 1
     9    3    5 1
    10    3   18 1
    11    5    6 2
    12    5    7 am
    13    7    8 1
    14    7   38 1
    15    8   16 1
    16    8    9 2
    17    9   10 1
    18   10   15 ar
    19   10   11 ar
    20   11   12 ar
    21   11   39 1
    22   12   13 ar
    23   12   40 1
    24   13   14 ar
    25   13   17 1
    26   14   15 ar
    27   14   41 1
    28   15   16 1
    29   17   42 1
    30   17   43 1
    31   17   44 1
    32   18   22 1
    33   18   19 1
    34   19   20 2
    35   19   32 1
    36   20   21 1
    37   21   22 2
    38   22   23 1
    39   23   24 1
    40   24   25 1
    41   24   45 1
    42   24   46 1
    43   25   30 ar
    44   25   26 ar
    45   26   27 ar
    46   26   47 1
    47   27   28 ar
    48   27   48 1
    49   28   29 ar
    50   28   49 1
    51   29   30 ar
    52   29   50 1
    53   30   31 1
    54   32   51 1
    55   32   52 1
@<TRIPOS>MOLECULE
ZINC09993331
   46    47     0     0     0
SMALL
USER_CHARGES
(2,6-dichloro-4-sulfamoyl-phenyl)carbamoylmethyl 4-acetyl-3,5-dimethyl-1H-pyrrole-2-carboxylate
@<TRIPOS>ATOM
      1 C1          6.7816   10.1845   -1.4273 C.3       1 <0>        -0.1019
      2 C2          5.3116   10.3967   -1.6824 C.2       1 <0>        -0.0137
      3 C3          4.6976   11.5931   -2.1235 C.2       1 <0>        -0.2622
      4 C4          3.3377   11.3396   -2.2173 C.2       1 <0>         0.1202
      5 N1          3.1201   10.0649   -1.8629 N.pl3     1 <0>        -0.5134
      6 H1          2.2541    9.6286   -1.8404 H         1 <0>         0.4297
      7 C5          4.3210    9.4716   -1.5354 C.2       1 <0>        -0.0511
      8 C6          4.5012    8.0835   -1.0974 C.2       1 <0>         0.5419
      9 O1          5.6134    7.6686   -0.8339 O.2       1 <0>        -0.4900
     10 O2          3.4333    7.2673   -0.9869 O.3       1 <0>        -0.3379
     11 C7          3.6863    5.9065   -0.5479 C.3       1 <0>         0.0598
     12 C8          2.3850    5.1491   -0.4843 C.2       1 <0>         0.5034
     13 O3          1.3465    5.7017   -0.7797 O.2       1 <0>        -0.4630
     14 N2          2.3752    3.8576   -0.0990 N.am      1 <0>        -0.6704
     15 C9          1.1773    3.1325   -0.1110 C.ar      1 <0>         0.2250
     16 C10         0.2975    3.2589   -1.1787 C.ar      1 <0>        -0.0548
     17 C11        -0.8839    2.5412   -1.1874 C.ar      1 <0>         0.0115
     18 C12        -1.1931    1.7026   -0.1324 C.ar      1 <0>        -0.6711
     19 C13        -0.3171    1.5699    0.9293 C.ar      1 <0>         0.0155
     20 C14         0.8661    2.2846    0.9447 C.ar      1 <0>        -0.0718
     21 Cl1         1.9620    2.1222    2.2812 Cl        1 <0>        -0.0318
     22 S1         -2.7037    0.7957   -0.1440 S.o2      1 <0>         2.7071
     23 O4         -3.0108    0.5008    1.2117 O.2       1 <0>        -0.9520
     24 O5         -3.5972    1.5059   -0.9905 O.2       1 <0>        -0.9489
     25 N3         -2.3994   -0.6530   -0.8863 N.pl3     1 <0>        -1.2451
     26 Cl2         0.6815    4.3165   -2.5007 Cl        1 <0>        -0.0095
     27 C15         2.2837   12.3284   -2.6444 C.3       1 <0>        -0.1012
     28 C16         5.3709   12.8616   -2.4191 C.2       1 <0>         0.4356
     29 O6          5.4665   13.7124   -1.5595 O.2       1 <0>        -0.4472
     30 C17         5.9443   13.1085   -3.7908 C.3       1 <0>        -0.1885
     31 H2          7.2635    9.8420   -2.3430 H         1 <0>         0.0788
     32 H3          7.2341   11.1233   -1.1078 H         1 <0>         0.0685
     33 H4          6.9104    9.4348   -0.6466 H         1 <0>         0.0871
     34 H5          4.1458    5.9230    0.4403 H         1 <0>         0.1115
     35 H6          4.3579    5.4163   -1.2528 H         1 <0>         0.1110
     36 H7          3.1979    3.4304    0.1866 H         1 <0>         0.4228
     37 H8         -1.5683    2.6390   -2.0171 H         1 <0>         0.1653
     38 H9         -0.5597    0.9106    1.7495 H         1 <0>         0.1661
     39 H10        -2.9056   -1.4418   -0.6365 H         1 <0>         0.4251
     40 H11        -1.7148   -0.7128   -1.5710 H         1 <0>         0.4186
     41 H12         1.9888   12.9370   -1.7895 H         1 <0>         0.0896
     42 H13         2.6851   12.9719   -3.4273 H         1 <0>         0.0894
     43 H14         1.4149   11.7915   -3.0252 H         1 <0>         0.0787
     44 H15         5.7066   12.3468   -4.3935 H         1 <0>         0.0738
     45 H16         5.5335   14.0336   -4.1951 H         1 <0>         0.0934
     46 H17         7.0289   13.1922   -3.7215 H         1 <0>         0.0964
@<TRIPOS>BOND
     1    1    2 1
     2    1   31 1
     3    1   32 1
     4    1   33 1
     5    2    7 2
     6    2    3 1
     7    3    4 2
     8    3   28 1
     9    4    5 1
    10    4   27 1
    11    5    6 1
    12    5    7 1
    13    7    8 1
    14    8    9 2
    15    8   10 1
    16   10   11 1
    17   11   12 1
    18   11   34 1
    19   11   35 1
    20   12   13 2
    21   12   14 am
    22   14   15 1
    23   14   36 1
    24   15   20 ar
    25   15   16 ar
    26   16   17 ar
    27   16   26 1
    28   17   18 ar
    29   17   37 1
    30   18   19 ar
    31   18   22 1
    32   19   20 ar
    33   19   38 1
    34   20   21 1
    35   22   23 2
    36   22   24 2
    37   22   25 1
    38   25   39 1
    39   25   40 1
    40   27   41 1
    41   27   42 1
    42   27   43 1
    43   28   29 2
    44   28   30 1
    45   30   44 1
    46   30   45 1
    47   30   46 1
@<TRIPOS>MOLECULE
ZINC20921650
   55    57     0     0     0
SMALL
USER_CHARGES
2-[[4-amino-5-[(N'E)-N'-[(1-isopropylpyrazol-4-yl)methylene]hydrazino]-1,2,4-triazol-3-yl]sulfanyl]-N-(3,5-dimethylphenyl)acetamide
@<TRIPOS>ATOM
      1 C1          5.9784    1.7456   -0.8775 C.3       1 <0>        -0.1174
      2 C2          4.7225    1.1213   -0.3260 C.ar      1 <0>        -0.0621
      3 C3          4.7753   -0.1250    0.2708 C.ar      1 <0>        -0.1363
      4 C4          3.6252   -0.7013    0.7780 C.ar      1 <0>        -0.0619
      5 C5          2.4197   -0.0330    0.6904 C.ar      1 <0>        -0.1289
      6 C6          2.3633    1.2187    0.0917 C.ar      1 <0>         0.1577
      7 C7          3.5190    1.7920   -0.4223 C.ar      1 <0>        -0.1519
      8 N1          1.1435    1.8984    0.0013 N.am      1 <0>        -0.6787
      9 C8         -0.0025    1.2076   -0.1595 C.2       1 <0>         0.5383
     10 O1          0.0313    0.0061   -0.3219 O.2       1 <0>        -0.5067
     11 C9         -1.3256    1.9289   -0.1439 C.3       1 <0>        -0.1449
     12 S1         -2.6683    0.7346   -0.3917 S.3       1 <0>         0.0720
     13 C10        -4.1285    1.7199   -0.3485 C.2       1 <0>         0.1717
     14 N2         -4.1774    3.0180   -0.1681 N.2       1 <0>        -0.3053
     15 N3         -5.5221    3.4096   -0.2034 N.2       1 <0>        -0.3150
     16 C11        -6.2514    2.3374   -0.3965 C.2       1 <0>         0.4918
     17 N4         -5.4088    1.2648   -0.4912 N.pl3     1 <0>        -0.2643
     18 N5         -5.7815   -0.0337   -0.6938 N.3       1 <0>        -0.7782
     19 N6         -7.6350    2.2979   -0.4885 N.pl3     1 <0>        -0.5642
     20 N7         -8.3787    3.4796   -0.3725 N.2       1 <0>        -0.2084
     21 C12        -9.6730    3.4427   -0.4586 C.2       1 <0>         0.1422
     22 C13       -10.4566    4.6877   -0.3364 C.2       1 <0>        -0.2065
     23 C14        -9.9404    5.9834   -0.1197 C.2       1 <0>         0.0897
     24 N8        -10.9437    6.8179   -0.0726 N.2       1 <0>        -0.2977
     25 N9        -12.1346    6.1033   -0.2459 N.pl3     1 <0>        -0.3578
     26 C15       -11.8281    4.8000   -0.4068 C.2       1 <0>         0.0913
     27 C16       -13.4839    6.6738   -0.2509 C.3       1 <0>         0.1516
     28 C17       -13.9139    6.9540   -1.6923 C.3       1 <0>        -0.1676
     29 C18       -14.4588    5.6832    0.3887 C.3       1 <0>        -0.1682
     30 C19         3.6873   -2.0597    1.4276 C.3       1 <0>        -0.1177
     31 H1          6.8288    1.0684   -0.7094 H         1 <0>         0.0673
     32 H2          6.1658    2.7028   -0.3690 H         1 <0>         0.0713
     33 H3          5.8572    1.9212   -1.9566 H         1 <0>         0.0709
     34 H4          5.7169   -0.6493    0.3411 H         1 <0>         0.1228
     35 H5          1.5219   -0.4833    1.0874 H         1 <0>         0.1333
     36 H6          3.4776    2.7632   -0.8928 H         1 <0>         0.1256
     37 H7          1.1200    2.9965    0.0615 H         1 <0>         0.4403
     38 H8         -1.4571    2.4327    0.8251 H         1 <0>         0.1330
     39 H9         -1.3456    2.6758   -0.9512 H         1 <0>         0.1320
     40 H10        -6.8462   -0.2908   -0.7957 H         1 <0>         0.4364
     41 H11        -5.0170   -0.8222   -0.7550 H         1 <0>         0.4486
     42 H12        -8.1482    1.3389   -0.6525 H         1 <0>         0.4054
     43 H13       -10.1862    2.4837   -0.6226 H         1 <0>         0.1198
     44 H14        -8.8968    6.2404   -0.0140 H         1 <0>         0.1919
     45 H15       -12.5286    3.9928   -0.5628 H         1 <0>         0.1800
     46 H16       -13.4434    7.6072    0.3297 H         1 <0>         0.1076
     47 H17       -14.9271    7.3824   -1.6960 H         1 <0>         0.0811
     48 H18       -13.9108    6.0148   -2.2650 H         1 <0>         0.0643
     49 H19       -13.2130    7.6662   -2.1521 H         1 <0>         0.0678
     50 H20       -15.4719    6.1116    0.3849 H         1 <0>         0.0865
     51 H21       -14.1497    5.4818    1.4250 H         1 <0>         0.0691
     52 H22       -14.4556    4.7440   -0.1840 H         1 <0>         0.0682
     53 H23         2.6821   -2.3501    1.7670 H         1 <0>         0.0666
     54 H24         4.3691   -2.0229    2.2900 H         1 <0>         0.0714
     55 H25         4.0560   -2.7976    0.6999 H         1 <0>         0.0719
@<TRIPOS>BOND
     1    1    2 1
     2    1   31 1
     3    1   32 1
     4    1   33 1
     5    2    7 ar
     6    2    3 ar
     7    3    4 ar
     8    3   34 1
     9    4    5 ar
    10    4   30 1
    11    5    6 ar
    12    5   35 1
    13    6    7 ar
    14    6    8 1
    15    7   36 1
    16    8    9 am
    17    8   37 1
    18    9   10 2
    19    9   11 1
    20   11   12 1
    21   11   38 1
    22   11   39 1
    23   12   13 1
    24   13   17 1
    25   13   14 2
    26   14   15 1
    27   15   16 2
    28   16   17 1
    29   16   19 1
    30   17   18 1
    31   18   40 1
    32   18   41 1
    33   19   20 1
    34   19   42 1
    35   20   21 2
    36   21   22 1
    37   21   43 1
    38   22   26 2
    39   22   23 1
    40   23   24 2
    41   23   44 1
    42   24   25 1
    43   25   26 1
    44   25   27 1
    45   26   45 1
    46   27   28 1
    47   27   29 1
    48   27   46 1
    49   28   47 1
    50   28   48 1
    51   28   49 1
    52   29   50 1
    53   29   51 1
    54   29   52 1
    55   30   53 1
    56   30   54 1
    57   30   55 1
@<TRIPOS>MOLECULE
ZINC36203007
   54    57     0     0     0
SMALL
USER_CHARGES

@<TRIPOS>ATOM
      1 C1         -0.1761    1.5429   -0.3894 C.3       1 <0>        -0.1467
      2 C2         -0.0891    0.0235   -0.2321 C.3       1 <0>         0.1819
      3 C3          0.7405   -0.5815   -1.3472 C.2       1 <0>         0.5383
      4 O1          0.5088   -0.5419   -2.5365 O.2       1 <0>        -0.4415
      5 N1          1.7897   -1.1719   -0.7416 N.am      1 <0>        -0.3740
      6 C4          1.7389   -1.0256    0.5873 C.2       1 <0>         0.7102
      7 O2          2.5744   -1.4720    1.3487 O.2       1 <0>        -0.5180
      8 N2          0.6592   -0.3294    0.9867 N.am      1 <0>        -0.7086
      9 N3          2.8076   -1.8552   -1.4197 N.am      1 <0>        -0.4983
     10 C5          4.0201   -1.2853   -1.5662 C.2       1 <0>         0.5465
     11 O3          4.2301   -0.1809   -1.1110 O.2       1 <0>        -0.4932
     12 C6          5.1150   -2.0203   -2.2957 C.3       1 <0>        -0.1496
     13 S1          6.6136   -0.9985   -2.3251 S.3       1 <0>         0.1198
     14 C7          7.7838   -1.9833   -3.2000 C.2       1 <0>         0.1718
     15 N4          7.5743   -3.1779   -3.7052 N.2       1 <0>        -0.2920
     16 N5          8.6411   -3.6085   -4.2777 N.2       1 <0>        -0.2387
     17 C8          9.5977   -2.7153   -4.1734 C.2       1 <0>         0.2061
     18 N6          9.0765   -1.6444   -3.4846 N.pl3     1 <0>        -0.3019
     19 N7          9.7184   -0.4854   -3.1520 N.3       1 <0>        -0.5821
     20 C9         10.9729   -2.8354   -4.7006 C.ar      1 <0>        -0.0659
     21 C10        12.0642   -2.5119   -3.8934 C.ar      1 <0>        -0.0660
     22 C11        13.3457   -2.6260   -4.3911 C.ar      1 <0>        -0.1530
     23 C12        13.5539   -3.0599   -5.6890 C.ar      1 <0>        -0.0567
     24 C13        12.4807   -3.3828   -6.4980 C.ar      1 <0>        -0.2074
     25 C14        11.1880   -3.2800   -6.0108 C.ar      1 <0>         0.1757
     26 O4         10.1330   -3.6032   -6.8030 O.3       1 <0>        -0.2958
     27 C15        10.4292   -4.0491   -8.1279 C.3       1 <0>         0.0235
     28 C16        -1.4676   -0.5847   -0.2026 C.ar      1 <0>        -0.1023
     29 C17        -2.0635   -1.0037   -1.3775 C.ar      1 <0>        -0.1088
     30 C18        -3.3280   -1.5616   -1.3505 C.ar      1 <0>        -0.1129
     31 C19        -3.9964   -1.7008   -0.1485 C.ar      1 <0>        -0.1069
     32 C20        -3.4002   -1.2826    1.0264 C.ar      1 <0>        -0.1164
     33 C21        -2.1340   -0.7287    0.9999 C.ar      1 <0>        -0.0945
     34 H1          0.8292    1.9604   -0.4466 H         1 <0>         0.0770
     35 H2         -0.7217    1.7830   -1.3019 H         1 <0>         0.0900
     36 H3         -0.6976    1.9677    0.4683 H         1 <0>         0.0885
     37 H4          0.4203   -0.1036    1.8993 H         1 <0>         0.4452
     38 H5          2.6397   -2.7384   -1.7838 H         1 <0>         0.4327
     39 H6          5.3255   -2.9594   -1.7840 H         1 <0>         0.1370
     40 H7          4.7959   -2.2267   -3.3173 H         1 <0>         0.1372
     41 H8         10.2386   -0.5935   -2.2942 H         1 <0>         0.3671
     42 H9         10.3182   -0.1762   -3.9021 H         1 <0>         0.3784
     43 H10        11.9057   -2.1723   -2.8805 H         1 <0>         0.1255
     44 H11        14.1899   -2.3754   -3.7659 H         1 <0>         0.1343
     45 H12        14.5601   -3.1463   -6.0716 H         1 <0>         0.1340
     46 H13        12.6504   -3.7200   -7.5099 H         1 <0>         0.1389
     47 H14        11.0453   -4.9470   -8.0799 H         1 <0>         0.0602
     48 H15         9.5002   -4.2736   -8.6520 H         1 <0>         0.1048
     49 H16        10.9680   -3.2669   -8.6626 H         1 <0>         0.0575
     50 H17        -1.5412   -0.8950   -2.3165 H         1 <0>         0.1394
     51 H18        -3.7938   -1.8883   -2.2684 H         1 <0>         0.1291
     52 H19        -4.9847   -2.1360   -0.1275 H         1 <0>         0.1274
     53 H20        -3.9226   -1.3911    1.9654 H         1 <0>         0.1291
     54 H21        -1.6667   -0.4054    1.9183 H         1 <0>         0.1239
@<TRIPOS>BOND
     1    1    2 1
     2    1   34 1
     3    1   35 1
     4    1   36 1
     5    2    8 1
     6    2    3 1
     7    2   28 1
     8    3    4 2
     9    3    5 am
    10    5    6 am
    11    5    9 1
    12    6    7 2
    13    6    8 am
    14    8   37 1
    15    9   10 am
    16    9   38 1
    17   10   11 2
    18   10   12 1
    19   12   13 1
    20   12   39 1
    21   12   40 1
    22   13   14 1
    23   14   18 1
    24   14   15 2
    25   15   16 1
    26   16   17 2
    27   17   18 1
    28   17   20 1
    29   18   19 1
    30   19   41 1
    31   19   42 1
    32   20   25 ar
    33   20   21 ar
    34   21   22 ar
    35   21   43 1
    36   22   23 ar
    37   22   44 1
    38   23   24 ar
    39   23   45 1
    40   24   25 ar
    41   24   46 1
    42   25   26 1
    43   26   27 1
    44   27   47 1
    45   27   48 1
    46   27   49 1
    47   28   33 ar
    48   28   29 ar
    49   29   30 ar
    50   29   50 1
    51   30   31 ar
    52   30   51 1
    53   31   32 ar
    54   31   52 1
    55   32   33 ar
    56   32   53 1
    57   33   54 1
@<TRIPOS>MOLECULE
ZINC45842293
   64    68     0     0     0
SMALL
USER_CHARGES

@<TRIPOS>ATOM
      1 C1         -0.0187    1.5258    0.0104 C.3       1 <0>        -0.1466
      2 C2          0.0021   -0.0041    0.0020 C.3       1 <0>        -0.1067
      3 H1          0.5123   -0.3556   -0.8948 H         1 <0>         0.1278
      4 C3         -1.4117   -0.5257    0.0127 C.2       1 <0>         0.5435
      5 O1         -1.9388   -0.8270    1.0621 O.2       1 <0>        -0.4451
      6 N1         -2.0902   -0.6573   -1.1443 N.am      1 <0>        -0.6857
      7 C4         -3.3547   -1.1238   -1.1348 C.2       1 <0>         0.6964
      8 O2         -3.8830   -1.4258   -0.0827 O.2       1 <0>        -0.5184
      9 N2         -4.0332   -1.2553   -2.2918 N.am      1 <0>        -0.7309
     10 C5         -5.4076   -1.7624   -2.2814 C.3       1 <0>         0.1998
     11 C6         -5.4278   -3.1687   -1.6791 C.3       1 <0>        -0.1241
     12 C7         -6.8632   -3.6983   -1.6683 C.3       1 <0>        -0.0821
     13 C8         -7.3989   -3.7492   -3.1005 C.3       1 <0>        -0.1118
     14 C9         -7.3787   -2.3429   -3.7028 C.3       1 <0>        -0.0799
     15 C10        -5.9433   -1.8133   -3.7137 C.3       1 <0>        -0.1139
     16 C11        -8.2581   -1.4153   -2.8620 C.3       1 <0>        -0.1118
     17 C12        -7.7225   -1.3644   -1.4298 C.3       1 <0>        -0.0822
     18 C13        -7.7427   -2.7707   -0.8274 C.3       1 <0>        -0.1104
     19 C14        -6.2871   -0.8348   -1.4406 C.3       1 <0>        -0.1242
     20 S1          0.8794   -0.6050    1.4716 S.3       1 <0>         0.0721
     21 C15         2.5331   -0.0421    1.2407 C.2       1 <0>         0.1447
     22 N3          2.9852    0.6566    0.2254 N.2       1 <0>        -0.2890
     23 N4          4.2387    0.8934    0.3821 N.2       1 <0>        -0.2799
     24 C16         4.6579    0.3649    1.4969 C.2       1 <0>         0.2247
     25 N5          3.5853   -0.2450    2.0868 N.pl3     1 <0>        -0.4557
     26 C17         3.5695   -0.9688    3.3604 C.3       1 <0>         0.1189
     27 C18         3.8848   -2.4452    3.1120 C.3       1 <0>        -0.1631
     28 C19         3.8685   -3.1897    4.4221 C.2       1 <0>         0.5256
     29 O3          3.6284   -2.5977    5.4531 O.2       1 <0>        -0.5376
     30 N6          4.1209   -4.5134    4.4482 N.am      1 <0>        -0.8511
     31 C20         6.0629    0.4208    2.0389 C.3       1 <0>        -0.0958
     32 C21         7.1508    0.9876    1.1245 C.3       1 <0>        -0.1449
     33 C22         6.6566    1.8023    2.3216 C.3       1 <0>        -0.1547
     34 H2          1.0039    1.9031    0.0027 H         1 <0>         0.0918
     35 H3         -0.5459    1.8868   -0.8726 H         1 <0>         0.0748
     36 H4         -0.5289    1.8773    0.9072 H         1 <0>         0.0757
     37 H5         -1.6686   -0.4162   -1.9840 H         1 <0>         0.4116
     38 H6         -3.6115   -1.0143   -3.1315 H         1 <0>         0.3976
     39 H7         -4.8012   -3.8296   -2.2781 H         1 <0>         0.0598
     40 H8         -5.0461   -3.1325   -0.6588 H         1 <0>         0.0871
     41 H9         -6.8776   -4.7002   -1.2392 H         1 <0>         0.0731
     42 H10        -6.7723   -4.4100   -3.6995 H         1 <0>         0.0626
     43 H11        -8.4215   -4.1265   -3.0928 H         1 <0>         0.0657
     44 H12        -7.7603   -2.3791   -4.7232 H         1 <0>         0.0763
     45 H13        -5.9289   -0.8114   -4.1428 H         1 <0>         0.0697
     46 H14        -5.3167   -2.4741   -4.3127 H         1 <0>         0.0696
     47 H15        -8.2437   -0.4134   -3.2911 H         1 <0>         0.0628
     48 H16        -9.2807   -1.7925   -2.8543 H         1 <0>         0.0657
     49 H17        -8.3490   -0.7036   -0.8307 H         1 <0>         0.0733
     50 H18        -8.7653   -3.1480   -0.8197 H         1 <0>         0.0635
     51 H19        -7.3610   -2.7345    0.1929 H         1 <0>         0.0658
     52 H20        -5.9054   -0.7986   -0.4202 H         1 <0>         0.0872
     53 H21        -6.2727    0.1671   -1.8697 H         1 <0>         0.0601
     54 H22         4.3189   -0.5446    4.0287 H         1 <0>         0.1130
     55 H23         2.5836   -0.8796    3.8168 H         1 <0>         0.1111
     56 H24         3.1354   -2.8693    2.4437 H         1 <0>         0.1077
     57 H25         4.8707   -2.5343    2.6556 H         1 <0>         0.1054
     58 H26         4.3129   -4.9868    3.6236 H         1 <0>         0.4041
     59 H27         4.1104   -4.9926    5.2915 H         1 <0>         0.4071
     60 H28         6.3413   -0.3932    2.7082 H         1 <0>         0.1244
     61 H29         8.1452    0.5465    1.1920 H         1 <0>         0.1063
     62 H30         6.8502    1.3201    0.1309 H         1 <0>         0.1109
     63 H31         6.0309    2.6707    2.1156 H         1 <0>         0.1015
     64 H32         7.3259    1.8970    3.1767 H         1 <0>         0.1071
@<TRIPOS>BOND
     1    1    2 1
     2    1   34 1
     3    1   35 1
     4    1   36 1
     5    2    3 1
     6    2    4 1
     7    2   20 1
     8    4    5 2
     9    4    6 am
    10    6    7 am
    11    6   37 1
    12    7    8 2
    13    7    9 am
    14    9   10 1
    15    9   38 1
    16   10   15 1
    17   10   19 1
    18   10   11 1
    19   11   12 1
    20   11   39 1
    21   11   40 1
    22   12   18 1
    23   12   13 1
    24   12   41 1
    25   13   14 1
    26   13   42 1
    27   13   43 1
    28   14   15 1
    29   14   16 1
    30   14   44 1
    31   15   45 1
    32   15   46 1
    33   16   17 1
    34   16   47 1
    35   16   48 1
    36   17   18 1
    37   17   19 1
    38   17   49 1
    39   18   50 1
    40   18   51 1
    41   19   52 1
    42   19   53 1
    43   20   21 1
    44   21   25 1
    45   21   22 2
    46   22   23 1
    47   23   24 2
    48   24   25 1
    49   24   31 1
    50   25   26 1
    51   26   27 1
    52   26   54 1
    53   26   55 1
    54   27   28 1
    55   27   56 1
    56   27   57 1
    57   28   29 2
    58   28   30 am
    59   30   58 1
    60   30   59 1
    61   31   33 1
    62   31   32 1
    63   31   60 1
    64   32   33 1
    65   32   61 1
    66   32   62 1
    67   33   63 1
    68   33   64 1
@<TRIPOS>MOLECULE
ZINC23944658
   49    51     0     0     0
SMALL
USER_CHARGES

@<TRIPOS>ATOM
      1 C1         -0.0126    1.3748   -0.1792 C.ar      1 <0>        -0.1176
      2 C2          1.1745    2.0810   -0.1820 C.ar      1 <0>        -0.0649
      3 C3          2.3796    1.4110   -0.0183 C.ar      1 <0>         0.1267
      4 C4          2.3872    0.0321    0.1478 C.ar      1 <0>        -0.0416
      5 C5          1.1970   -0.6681    0.1498 C.ar      1 <0>        -0.6193
      6 C6         -0.0017    0.0022   -0.0136 C.ar      1 <0>        -0.0297
      7 S1          1.2055   -2.4175    0.3599 S.o2      1 <0>         2.6558
      8 O1          0.0026   -2.9022   -0.2210 O.2       1 <0>        -0.9767
      9 O2          2.4874   -2.8700   -0.0537 O.2       1 <0>        -0.9806
     10 N1          1.0999   -2.7160    1.9853 N.2       1 <0>        -1.0168
     11 C7          1.0865   -3.9341    2.4196 C.2       1 <0>         0.5360
     12 C8          1.1670   -5.1693    1.5497 C.3       1 <0>        -0.1908
     13 C9          1.5378   -6.3044    2.5312 C.3       1 <0>        -0.1263
     14 C10         0.9989   -5.7610    3.8724 C.3       1 <0>         0.0956
     15 N2          1.0032   -4.2997    3.7347 N.pl3     1 <0>        -0.6848
     16 N3          3.5839    2.1235   -0.0212 N.am      1 <0>        -0.6691
     17 C11         3.6280    3.3746    0.4780 C.2       1 <0>         0.5178
     18 O3          2.6493    3.8477    1.0159 O.2       1 <0>        -0.4941
     19 C12         4.8932    4.1858    0.3677 C.3       1 <0>         0.0519
     20 O4          4.6909    5.4677    0.9659 O.3       1 <0>        -0.3274
     21 C13         5.7338    6.3213    0.9511 C.2       1 <0>         0.5136
     22 O5          6.7863    5.9862    0.4440 O.2       1 <0>        -0.4861
     23 C14         5.5982    7.6591    1.5489 C.ar      1 <0>        -0.1720
     24 C15         4.3898    8.0459    2.1385 C.ar      1 <0>        -0.0251
     25 C16         4.2653    9.2873    2.6927 C.ar      1 <0>        -0.1690
     26 C17         5.3361   10.1765    2.6756 C.ar      1 <0>         0.1686
     27 C18         6.5411    9.8091    2.0952 C.ar      1 <0>        -0.1911
     28 C19         6.6825    8.5506    1.5351 C.ar      1 <0>         0.1981
     29 O6          7.8602    8.1834    0.9710 O.3       1 <0>        -0.4767
     30 O7          5.2004   11.4082    3.2288 O.3       1 <0>        -0.4947
     31 H1         -0.9506    1.8959   -0.3019 H         1 <0>         0.1408
     32 H2          1.1654    3.1532   -0.3118 H         1 <0>         0.1445
     33 H3          3.3229   -0.4920    0.2751 H         1 <0>         0.1448
     34 H4         -0.9312   -0.5478   -0.0118 H         1 <0>         0.1439
     35 H5          0.2030   -5.3696    1.0821 H         1 <0>         0.1263
     36 H6          1.9421   -5.0521    0.7923 H         1 <0>         0.1164
     37 H7          1.0372   -7.2334    2.2585 H         1 <0>         0.1025
     38 H8          2.6180   -6.4442    2.5740 H         1 <0>         0.0913
     39 H9         -0.0140   -6.1242    4.0463 H         1 <0>         0.0844
     40 H10         1.6533   -6.0614    4.6907 H         1 <0>         0.0928
     41 H11         0.9515   -3.6770    4.4766 H         1 <0>         0.4253
     42 H12         4.3871    1.7169   -0.3824 H         1 <0>         0.4174
     43 H13         5.7026    3.6682    0.8826 H         1 <0>         0.1065
     44 H14         5.1533    4.3122   -0.6833 H         1 <0>         0.1075
     45 H15         3.5544    7.3616    2.1549 H         1 <0>         0.1509
     46 H16         3.3305    9.5813    3.1467 H         1 <0>         0.1432
     47 H17         7.3694   10.5022    2.0838 H         1 <0>         0.1478
     48 H18         7.9290    8.3966    0.0303 H         1 <0>         0.4018
     49 H19         5.4376   11.4470    4.1654 H         1 <0>         0.4023
@<TRIPOS>BOND
     1    1    6 ar
     2    1    2 ar
     3    1   31 1
     4    2    3 ar
     5    2   32 1
     6    3    4 ar
     7    3   16 1
     8    4    5 ar
     9    4   33 1
    10    5    6 ar
    11    5    7 1
    12    6   34 1
    13    7    8 2
    14    7    9 2
    15    7   10 1
    16   10   11 2
    17   11   15 1
    18   11   12 1
    19   12   13 1
    20   12   35 1
    21   12   36 1
    22   13   14 1
    23   13   37 1
    24   13   38 1
    25   14   15 1
    26   14   39 1
    27   14   40 1
    28   15   41 1
    29   16   17 am
    30   16   42 1
    31   17   18 2
    32   17   19 1
    33   19   20 1
    34   19   43 1
    35   19   44 1
    36   20   21 1
    37   21   22 2
    38   21   23 1
    39   23   28 ar
    40   23   24 ar
    41   24   25 ar
    42   24   45 1
    43   25   26 ar
    44   25   46 1
    45   26   27 ar
    46   26   30 1
    47   27   28 ar
    48   27   47 1
    49   28   29 1
    50   29   48 1
    51   30   49 1
@<TRIPOS>MOLECULE
ZINC02060841
   59    61     0     0     0
SMALL
USER_CHARGES
2-[(3-nitrophenyl)-phenylsulfonyl-amino]-N-[2-(p-tolylmethylsulfanyl)ethyl]acetamide
@<TRIPOS>ATOM
      1 C1          1.1695   -2.2634    4.7293 C.3       1 <0>        -0.1184
      2 C2          1.5474   -2.1420    3.2755 C.ar      1 <0>        -0.0771
      3 C3          1.2254   -3.1542    2.3909 C.ar      1 <0>        -0.1211
      4 C4          1.5720   -3.0429    1.0573 C.ar      1 <0>        -0.0944
      5 C5          2.2399   -1.9190    0.6083 C.ar      1 <0>        -0.0853
      6 C6          2.5662   -0.9090    1.4939 C.ar      1 <0>        -0.0947
      7 C7          2.2157   -1.0184    2.8266 C.ar      1 <0>        -0.1213
      8 C8          2.6178   -1.7977   -0.8455 C.3       1 <0>        -0.0441
      9 S1          1.2722   -0.9893   -1.7546 S.3       1 <0>        -0.2227
     10 C9          1.8764   -0.9207   -3.4636 C.3       1 <0>        -0.1121
     11 C10         0.8237   -0.2526   -4.3503 C.3       1 <0>         0.1348
     12 N1          1.3116   -0.1972   -5.7306 N.am      1 <0>        -0.7231
     13 C11         0.5468    0.3534   -6.6941 C.2       1 <0>         0.4952
     14 O1         -0.5454    0.8029   -6.4186 O.2       1 <0>        -0.5135
     15 C12         1.0487    0.4104   -8.1139 C.3       1 <0>         0.0971
     16 N2          0.0407    1.0501   -8.9629 N.pl3     1 <0>        -0.9290
     17 C13        -1.0005    0.2919   -9.5031 C.ar      1 <0>         0.1529
     18 C14        -1.1874    0.2462  -10.8790 C.ar      1 <0>        -0.0824
     19 C15        -2.2148   -0.5082  -11.4099 C.ar      1 <0>        -0.0949
     20 C16        -3.0639   -1.2094  -10.5731 C.ar      1 <0>        -0.0559
     21 C17        -2.8840   -1.1618   -9.2030 C.ar      1 <0>        -0.0289
     22 C18        -1.8550   -0.4134   -8.6656 C.ar      1 <0>        -0.0573
     23 N3         -3.7954   -1.9134   -8.3113 N.pl3     1 <0>         0.0254
     24 O2         -3.6378   -1.8716   -7.1042 O.2       1 <0>        -0.1499
     25 O3         -4.7030   -2.5736   -8.7845 O.3       1 <0>        -0.1530
     26 S2          0.1359    2.6723   -9.2822 S.o2      1 <0>         2.6820
     27 O4         -1.1476    3.0713   -9.7435 O.2       1 <0>        -0.9316
     28 O5          0.7609    3.2720   -8.1557 O.2       1 <0>        -0.9307
     29 C19         1.2430    2.8723  -10.6383 C.ar      1 <0>        -0.6810
     30 C20         2.6059    2.9322  -10.4148 C.ar      1 <0>        -0.0219
     31 C21         3.4748    3.0839  -11.4792 C.ar      1 <0>        -0.1351
     32 C22         2.9802    3.1865  -12.7659 C.ar      1 <0>        -0.0581
     33 C23         1.6170    3.1322  -12.9888 C.ar      1 <0>        -0.1345
     34 C24         0.7484    2.9749  -11.9250 C.ar      1 <0>        -0.0258
     35 H1          1.9777   -2.7498    5.2755 H         1 <0>         0.0722
     36 H2          0.9970   -1.2702    5.1440 H         1 <0>         0.0679
     37 H3          0.2604   -2.8579    4.8200 H         1 <0>         0.0681
     38 H4          0.7032   -4.0322    2.7416 H         1 <0>         0.1249
     39 H5          1.3207   -3.8339    0.3662 H         1 <0>         0.1246
     40 H6          3.0920   -0.0329    1.1439 H         1 <0>         0.1243
     41 H7          2.4671   -0.2274    3.5177 H         1 <0>         0.1247
     42 H8          2.7911   -2.7908   -1.2600 H         1 <0>         0.0908
     43 H9          3.5265   -1.2025   -0.9363 H         1 <0>         0.0906
     44 H10         2.8006   -0.3440   -3.4994 H         1 <0>         0.0890
     45 H11         2.0652   -1.9323   -3.8231 H         1 <0>         0.0889
     46 H12        -0.1006   -0.8293   -4.3146 H         1 <0>         0.0843
     47 H13         0.6348    0.7590   -3.9908 H         1 <0>         0.0831
     48 H14         2.1852   -0.5567   -5.9509 H         1 <0>         0.4029
     49 H15         1.9730    0.9871   -8.1497 H         1 <0>         0.1234
     50 H16         1.2376   -0.6012   -8.4734 H         1 <0>         0.1237
     51 H17        -0.5272    0.7967  -11.5328 H         1 <0>         0.1418
     52 H18        -2.3584   -0.5472  -12.4796 H         1 <0>         0.1579
     53 H19        -3.8691   -1.7956  -10.9907 H         1 <0>         0.1600
     54 H20        -1.7153   -0.3764   -7.5953 H         1 <0>         0.1746
     55 H21         2.9920    2.8566   -9.4090 H         1 <0>         0.1390
     56 H22         4.5398    3.1259  -11.3051 H         1 <0>         0.1372
     57 H23         3.6588    3.3087  -13.5972 H         1 <0>         0.1354
     58 H24         1.2306    3.2124  -13.9942 H         1 <0>         0.1379
     59 H25        -0.3166    2.9325  -12.0992 H         1 <0>         0.1433
@<TRIPOS>BOND
     1    1    2 1
     2    1   35 1
     3    1   36 1
     4    1   37 1
     5    2    7 ar
     6    2    3 ar
     7    3    4 ar
     8    3   38 1
     9    4    5 ar
    10    4   39 1
    11    5    6 ar
    12    5    8 1
    13    6    7 ar
    14    6   40 1
    15    7   41 1
    16    8    9 1
    17    8   42 1
    18    8   43 1
    19    9   10 1
    20   10   11 1
    21   10   44 1
    22   10   45 1
    23   11   12 1
    24   11   46 1
    25   11   47 1
    26   12   13 am
    27   12   48 1
    28   13   14 2
    29   13   15 1
    30   15   16 1
    31   15   49 1
    32   15   50 1
    33   16   17 1
    34   16   26 1
    35   17   22 ar
    36   17   18 ar
    37   18   19 ar
    38   18   51 1
    39   19   20 ar
    40   19   52 1
    41   20   21 ar
    42   20   53 1
    43   21   22 ar
    44   21   23 1
    45   22   54 1
    46   23   24 2
    47   23   25 1
    48   26   27 2
    49   26   28 2
    50   26   29 1
    51   29   34 ar
    52   29   30 ar
    53   30   31 ar
    54   30   55 1
    55   31   32 ar
    56   31   56 1
    57   32   33 ar
    58   32   57 1
    59   33   34 ar
    60   33   58 1
    61   34   59 1
@<TRIPOS>MOLECULE
ZINC17084591
   62    65     0     0     0
SMALL
USER_CHARGES
N-(3-nitrophenyl)-2-[(2Z,5S)-4-oxo-3-(4-phenylbutyl)-2-phenylimino-thiazolidin-5-yl]acetamide
@<TRIPOS>ATOM
      1 C1          8.3844   -1.9220   -2.9977 C.ar      1 <0>        -0.1248
      2 C2          7.2118   -2.6540   -2.9938 C.ar      1 <0>        -0.1180
      3 C3          5.9916   -2.0045   -2.9751 C.ar      1 <0>        -0.1180
      4 C4          5.9442   -0.6230   -2.9593 C.ar      1 <0>        -0.0829
      5 C5          7.1168    0.1090   -2.9680 C.ar      1 <0>        -0.1178
      6 C6          8.3370   -0.5406   -2.9824 C.ar      1 <0>        -0.1179
      7 C7          4.6141    0.0850   -2.9388 C.3       1 <0>        -0.0791
      8 C8          4.1776    0.3087   -1.4896 C.3       1 <0>        -0.1079
      9 C9          2.8271    1.0275   -1.4688 C.3       1 <0>        -0.1304
     10 C10         2.3907    1.2512   -0.0195 C.3       1 <0>         0.0967
     11 N1          1.0976    1.9395    0.0004 N.am      1 <0>        -0.5429
     12 C11        -0.0094    1.2166    0.0028 C.2       1 <0>         0.5297
     13 O1          0.0128    0.0044   -0.0108 O.2       1 <0>        -0.4688
     14 C12        -1.3117    2.0005    0.0174 C.3       1 <0>        -0.0787
     15 H1         -1.8902    1.7884    0.9166 H         1 <0>         0.1632
     16 S1         -0.6624    3.7183    0.0365 S.3       1 <0>        -0.1109
     17 C13         1.0785    3.3183    0.0154 C.2       1 <0>         0.4071
     18 N2          2.0995    4.1429    0.0144 N.2       1 <0>        -0.4576
     19 C14         1.8870    5.4957    0.0310 C.ar      1 <0>         0.0941
     20 C15         0.9307    6.0658   -0.8116 C.ar      1 <0>        -0.1424
     21 C16         0.7181    7.4286   -0.7860 C.ar      1 <0>        -0.1002
     22 C17         1.4581    8.2315    0.0639 C.ar      1 <0>        -0.1187
     23 C18         2.4111    7.6737    0.8977 C.ar      1 <0>        -0.1053
     24 C19         2.6299    6.3118    0.8865 C.ar      1 <0>        -0.0964
     25 C20        -2.1349    1.7311   -1.2439 C.3       1 <0>        -0.1170
     26 C21        -3.4664    2.4280   -1.1331 C.2       1 <0>         0.5230
     27 O2         -3.7310    3.0764   -0.1428 O.2       1 <0>        -0.5034
     28 N3         -4.3633    2.3308   -2.1344 N.am      1 <0>        -0.6687
     29 C22        -5.6353    2.8960   -1.9917 C.ar      1 <0>         0.1488
     30 C23        -5.7948    4.0815   -1.2857 C.ar      1 <0>        -0.0697
     31 C24        -7.0515    4.6367   -1.1466 C.ar      1 <0>        -0.0958
     32 C25        -8.1506    4.0137   -1.7094 C.ar      1 <0>        -0.0666
     33 C26        -7.9951    2.8336   -2.4127 C.ar      1 <0>        -0.0245
     34 C27        -6.7399    2.2760   -2.5604 C.ar      1 <0>        -0.0839
     35 N4         -9.1741    2.1699   -3.0130 N.pl3     1 <0>         0.0267
     36 O3        -10.2805    2.6634   -2.8872 O.2       1 <0>        -0.1519
     37 O4         -9.0379    1.1302   -3.6327 O.3       1 <0>        -0.1570
     38 H2          9.3377   -2.4295   -3.0123 H         1 <0>         0.1211
     39 H3          7.2488   -3.7333   -3.0058 H         1 <0>         0.1216
     40 H4          5.0755   -2.5763   -2.9724 H         1 <0>         0.1206
     41 H5          7.0797    1.1883   -2.9601 H         1 <0>         0.1207
     42 H6          9.2531    0.0313   -2.9850 H         1 <0>         0.1216
     43 H7          3.8702   -0.5241   -3.4524 H         1 <0>         0.0723
     44 H8          4.7067    1.0470   -3.4429 H         1 <0>         0.0725
     45 H9          4.9214    0.9178   -0.9760 H         1 <0>         0.0692
     46 H10         4.0849   -0.6533   -0.9855 H         1 <0>         0.0682
     47 H11         2.0833    0.4184   -1.9824 H         1 <0>         0.0678
     48 H12         2.9198    1.9895   -1.9729 H         1 <0>         0.0709
     49 H13         3.1345    1.8603    0.4941 H         1 <0>         0.1016
     50 H14         2.2980    0.2892    0.4846 H         1 <0>         0.0977
     51 H15         0.3555    5.4408   -1.4786 H         1 <0>         0.1283
     52 H16        -0.0244    7.8703   -1.4340 H         1 <0>         0.1272
     53 H17         1.2908    9.2983    0.0767 H         1 <0>         0.1270
     54 H18         2.9847    8.3061    1.5592 H         1 <0>         0.1307
     55 H19         3.3743    5.8778    1.5376 H         1 <0>         0.1304
     56 H20        -1.5989    2.1080   -2.1150 H         1 <0>         0.1181
     57 H21        -2.2942    0.6581   -1.3515 H         1 <0>         0.1315
     58 H22        -4.1269    1.8690   -2.9541 H         1 <0>         0.4200
     59 H23        -4.9370    4.5683   -0.8458 H         1 <0>         0.1597
     60 H24        -7.1763    5.5583   -0.5975 H         1 <0>         0.1543
     61 H25        -9.1324    4.4498   -1.5989 H         1 <0>         0.1570
     62 H26        -6.6185    1.3565   -3.1137 H         1 <0>         0.1577
@<TRIPOS>BOND
     1    1    6 ar
     2    1    2 ar
     3    1   38 1
     4    2    3 ar
     5    2   39 1
     6    3    4 ar
     7    3   40 1
     8    4    5 ar
     9    4    7 1
    10    5    6 ar
    11    5   41 1
    12    6   42 1
    13    7    8 1
    14    7   43 1
    15    7   44 1
    16    8    9 1
    17    8   45 1
    18    8   46 1
    19    9   10 1
    20    9   47 1
    21    9   48 1
    22   10   11 1
    23   10   49 1
    24   10   50 1
    25   11   17 1
    26   11   12 am
    27   12   13 2
    28   12   14 1
    29   14   15 1
    30   14   16 1
    31   14   25 1
    32   16   17 1
    33   17   18 2
    34   18   19 1
    35   19   24 ar
    36   19   20 ar
    37   20   21 ar
    38   20   51 1
    39   21   22 ar
    40   21   52 1
    41   22   23 ar
    42   22   53 1
    43   23   24 ar
    44   23   54 1
    45   24   55 1
    46   25   26 1
    47   25   56 1
    48   25   57 1
    49   26   27 2
    50   26   28 am
    51   28   29 1
    52   28   58 1
    53   29   34 ar
    54   29   30 ar
    55   30   31 ar
    56   30   59 1
    57   31   32 ar
    58   31   60 1
    59   32   33 ar
    60   32   61 1
    61   33   34 ar
    62   33   35 1
    63   34   62 1
    64   35   36 2
    65   35   37 1
@<TRIPOS>MOLECULE
ZINC35991374
   65    67     0     0     0
SMALL
USER_CHARGES

@<TRIPOS>ATOM
      1 C1         -1.1627    2.3501    0.3853 C.3       1 <0>        -0.1719
      2 C2         -0.5549    0.9728    0.1124 C.3       1 <0>         0.0902
      3 N1         -1.6248   -0.0240    0.0228 N.am      1 <0>        -0.5365
      4 C3         -2.0312   -0.6383    1.1727 C.2       1 <0>         0.2594
      5 C4         -3.0125   -1.5660    1.1581 C.2       1 <0>        -0.2611
      6 C5         -3.6466   -1.9008   -0.1768 C.3       1 <0>         0.2346
      7 H1         -4.7159   -1.7042   -0.0996 H         1 <0>         0.0996
      8 N2         -3.1368   -1.1819   -1.3566 N.am      1 <0>        -0.7100
      9 C6         -2.1531   -0.2776   -1.1811 C.2       1 <0>         0.7070
     10 O1         -1.7281    0.3239   -2.1482 O.2       1 <0>        -0.5546
     11 C7         -3.4662   -3.3771   -0.4195 C.ar      1 <0>        -0.0770
     12 C8         -2.5150   -4.0836    0.2929 C.ar      1 <0>        -0.0795
     13 C9         -2.3489   -5.4377    0.0708 C.ar      1 <0>        -0.0983
     14 C10        -3.1333   -6.0871   -0.8642 C.ar      1 <0>        -0.0938
     15 C11        -4.0853   -5.3819   -1.5777 C.ar      1 <0>        -0.0299
     16 C12        -4.2560   -4.0264   -1.3508 C.ar      1 <0>        -0.0214
     17 Cl1        -5.4558   -3.1413   -2.2401 Cl        1 <0>        -0.0460
     18 Cl2        -5.0706   -6.1968   -2.7519 Cl        1 <0>        -0.0457
     19 C13        -3.4338   -2.2037    2.3483 C.2       1 <0>         0.5333
     20 O2         -2.8358   -2.0053    3.3893 O.2       1 <0>        -0.4923
     21 O3         -4.4988   -3.0322    2.3293 O.3       1 <0>        -0.3487
     22 C14        -4.8685   -3.6421    3.5676 C.3       1 <0>         0.0673
     23 C15        -6.0881   -4.5399    3.3499 C.3       1 <0>        -0.1530
     24 C16        -1.3736   -0.2755    2.4793 C.3       1 <0>         0.0748
     25 N3         -0.3788   -1.2987    2.8275 N.3       1 <0>        -0.5130
     26 C17         0.7707   -1.2473    1.9151 C.3       1 <0>         0.0437
     27 C18         1.7139   -2.4146    2.2145 C.3       1 <0>        -0.0978
     28 C19         2.1875   -2.3220    3.6677 C.3       1 <0>        -0.0806
     29 C20         0.9688   -2.3289    4.5948 C.3       1 <0>        -0.1050
     30 C21         0.0471   -1.1640    4.2264 C.3       1 <0>         0.0675
     31 C22         3.0692   -3.5019    3.9863 C.2       1 <0>         0.4657
     32 O4          3.2964   -4.3325    3.1387 O.2       1 <0>        -0.5038
     33 O5          3.6021   -3.6301    5.2115 O.3       1 <0>        -0.3520
     34 C23         4.4280   -4.7729    5.4435 C.3       1 <0>         0.0594
     35 C24         4.9408   -4.7476    6.8848 C.3       1 <0>        -0.1526
     36 H2         -0.3667    3.0918    0.4519 H         1 <0>         0.0787
     37 H3         -1.8398    2.6158   -0.4265 H         1 <0>         0.0676
     38 H4         -1.7145    2.3240    1.3249 H         1 <0>         0.0602
     39 H5         -0.0031    0.9989   -0.8273 H         1 <0>         0.1066
     40 H6          0.1222    0.7071    0.9241 H         1 <0>         0.0947
     41 H7         -3.5027   -1.3528   -2.2385 H         1 <0>         0.4315
     42 H8         -1.9012   -3.5771    1.0230 H         1 <0>         0.1405
     43 H9         -1.6055   -5.9887    0.6279 H         1 <0>         0.1396
     44 H10        -3.0024   -7.1450   -1.0376 H         1 <0>         0.1435
     45 H11        -4.0377   -4.2416    3.9397 H         1 <0>         0.0668
     46 H12        -5.1125   -2.8680    4.2953 H         1 <0>         0.0657
     47 H13        -6.3701   -5.0051    4.2944 H         1 <0>         0.0782
     48 H14        -6.9189   -3.9404    2.9778 H         1 <0>         0.0656
     49 H15        -5.8441   -5.3140    2.6222 H         1 <0>         0.0650
     50 H16        -0.8809    0.6919    2.3817 H         1 <0>         0.0554
     51 H17        -2.1288   -0.2212    3.2634 H         1 <0>         0.1314
     52 H18         0.4205   -1.3183    0.8854 H         1 <0>         0.0783
     53 H19         1.3024   -0.3059    2.0537 H         1 <0>         0.0418
     54 H20         1.1868   -3.3565    2.0629 H         1 <0>         0.0829
     55 H21         2.5748   -2.3672    1.5476 H         1 <0>         0.0779
     56 H22         2.7482   -1.3982    3.8100 H         1 <0>         0.1069
     57 H23         0.4300   -3.2695    4.4806 H         1 <0>         0.0793
     58 H24         1.2973   -2.2202    5.6284 H         1 <0>         0.0837
     59 H25         0.5823   -0.2231    4.3541 H         1 <0>         0.0378
     60 H26        -0.8286   -1.1746    4.8753 H         1 <0>         0.0936
     61 H27         3.8467   -5.6804    5.2805 H         1 <0>         0.0675
     62 H28         5.2741   -4.7552    4.7565 H         1 <0>         0.0670
     63 H29         5.5221   -3.8401    7.0477 H         1 <0>         0.0667
     64 H30         4.0947   -4.7653    7.5717 H         1 <0>         0.0673
     65 H31         5.5708   -5.6193    7.0617 H         1 <0>         0.0801
@<TRIPOS>BOND
     1    1    2 1
     2    1   36 1
     3    1   37 1
     4    1   38 1
     5    2    3 1
     6    2   39 1
     7    2   40 1
     8    3    9 am
     9    3    4 1
    10    4    5 2
    11    4   24 1
    12    5    6 1
    13    5   19 1
    14    6    7 1
    15    6    8 1
    16    6   11 1
    17    8    9 am
    18    8   41 1
    19    9   10 2
    20   11   16 ar
    21   11   12 ar
    22   12   13 ar
    23   12   42 1
    24   13   14 ar
    25   13   43 1
    26   14   15 ar
    27   14   44 1
    28   15   16 ar
    29   15   18 1
    30   16   17 1
    31   19   20 2
    32   19   21 1
    33   21   22 1
    34   22   23 1
    35   22   45 1
    36   22   46 1
    37   23   47 1
    38   23   48 1
    39   23   49 1
    40   24   25 1
    41   24   50 1
    42   24   51 1
    43   25   30 1
    44   25   26 1
    45   26   27 1
    46   26   52 1
    47   26   53 1
    48   27   28 1
    49   27   54 1
    50   27   55 1
    51   28   29 1
    52   28   31 1
    53   28   56 1
    54   29   30 1
    55   29   57 1
    56   29   58 1
    57   30   59 1
    58   30   60 1
    59   31   32 2
    60   31   33 1
    61   33   34 1
    62   34   35 1
    63   34   61 1
    64   34   62 1
    65   35   63 1
    66   35   64 1
    67   35   65 1
@<TRIPOS>MOLECULE
ZINC40914536
   58    61     0     0     0
SMALL
USER_CHARGES

@<TRIPOS>ATOM
      1 C1          0.4740    1.4966   -0.2495 C.3       1 <0>        -0.1515
      2 C2          0.4058   -0.0312   -0.2038 C.3       1 <0>         0.0518
      3 O1          1.1994   -0.5753   -1.2603 O.3       1 <0>        -0.3012
      4 C3          1.2471   -1.9306   -1.3616 C.ar      1 <0>         0.1091
      5 C4          0.5408   -2.7190   -0.4673 C.ar      1 <0>        -0.1465
      6 C5          0.5900   -4.0966   -0.5720 C.ar      1 <0>        -0.1038
      7 C6          1.3432   -4.6909   -1.5674 C.ar      1 <0>        -0.0795
      8 C7          2.0505   -3.9101   -2.4626 C.ar      1 <0>        -0.1713
      9 C8          2.0006   -2.5287   -2.3671 C.ar      1 <0>         0.1146
     10 O2          2.6910   -1.7591   -3.2505 O.3       1 <0>        -0.2938
     11 C9          3.4427   -2.4415   -4.2561 C.3       1 <0>         0.0995
     12 C10         4.1357   -1.4333   -5.1361 C.ar      1 <0>        -0.0791
     13 C11         3.4988   -0.9460   -6.2625 C.ar      1 <0>        -0.0764
     14 C12         4.1334   -0.0217   -7.0706 C.ar      1 <0>        -0.1007
     15 C13         5.4064    0.4169   -6.7525 C.ar      1 <0>        -0.0217
     16 C14         6.0438   -0.0707   -5.6244 C.ar      1 <0>        -0.0347
     17 C15         5.4051   -0.9921   -4.8137 C.ar      1 <0>        -0.0732
     18 Cl1         7.6414    0.4780   -5.2241 Cl        1 <0>        -0.0421
     19 Cl2         6.2042    1.5774   -7.7675 Cl        1 <0>        -0.0423
     20 C16        -0.1787   -4.9525    0.4015 C.3       1 <0>         0.2886
     21 H1         -0.7080   -4.3132    1.1081 H         1 <0>         0.1106
     22 C17        -1.1710   -5.7996   -0.3497 C.2       1 <0>        -0.2796
     23 C18        -1.0250   -7.1230   -0.5183 C.2       1 <0>         0.2308
     24 N1          0.0451   -7.8121   -0.0047 N.pl3     1 <0>        -0.6089
     25 C19         0.8438   -7.1544    0.9209 C.2       1 <0>         0.4930
     26 N2          0.7479   -5.8172    1.1267 N.pl3     1 <0>        -0.3844
     27 N3          1.6770   -5.5002    2.1164 N.2       1 <0>        -0.2902
     28 C20         2.2732   -6.6192    2.4469 C.2       1 <0>         0.2187
     29 N4          1.7664   -7.6192    1.7178 N.2       1 <0>        -0.5456
     30 C21        -2.0707   -7.8776   -1.2982 C.3       1 <0>        -0.1350
     31 C22        -2.3094   -5.1720   -0.9027 C.2       1 <0>         0.5441
     32 O3         -3.2205   -4.8167   -0.1783 O.2       1 <0>        -0.4934
     33 O4         -2.3867   -4.9666   -2.2345 O.3       1 <0>        -0.3417
     34 C23        -3.5666   -4.3267   -2.7248 C.3       1 <0>         0.0576
     35 C24        -3.4735   -4.1810   -4.2450 C.3       1 <0>        -0.1519
     36 H2          1.5087    1.8178   -0.1293 H         1 <0>         0.0674
     37 H3          0.0933    1.8487   -1.2082 H         1 <0>         0.0668
     38 H4         -0.1313    1.9116    0.5564 H         1 <0>         0.0795
     39 H5          0.7865   -0.3834    0.7550 H         1 <0>         0.0629
     40 H6         -0.6288   -0.3525   -0.3240 H         1 <0>         0.0612
     41 H7         -0.0477   -2.2573    0.3117 H         1 <0>         0.1372
     42 H8          1.3793   -5.7674   -1.6457 H         1 <0>         0.1183
     43 H9          2.6384   -4.3769   -3.2391 H         1 <0>         0.1379
     44 H10         4.1864   -3.0818   -3.7819 H         1 <0>         0.0766
     45 H11         2.7712   -3.0509   -4.8609 H         1 <0>         0.0789
     46 H12         2.5051   -1.2881   -6.5112 H         1 <0>         0.1422
     47 H13         3.6357    0.3580   -7.9507 H         1 <0>         0.1476
     48 H14         5.9002   -1.3698   -3.9313 H         1 <0>         0.1451
     49 H15         0.2356   -8.7232   -0.2775 H         1 <0>         0.4424
     50 H16         3.0511   -6.7181    3.1896 H         1 <0>         0.2272
     51 H17        -1.8474   -7.8122   -2.3630 H         1 <0>         0.1049
     52 H18        -2.0694   -8.9232   -0.9903 H         1 <0>         0.0910
     53 H19        -3.0516   -7.4433   -1.1052 H         1 <0>         0.0908
     54 H20        -4.4389   -4.9286   -2.4702 H         1 <0>         0.0691
     55 H21        -3.6605   -3.3404   -2.2703 H         1 <0>         0.0684
     56 H22        -2.6011   -3.5791   -4.4996 H         1 <0>         0.0669
     57 H23        -3.3795   -5.1673   -4.6994 H         1 <0>         0.0669
     58 H24        -4.3734   -3.6929   -4.6190 H         1 <0>         0.0805
@<TRIPOS>BOND
     1    1    2 1
     2    1   36 1
     3    1   37 1
     4    1   38 1
     5    2    3 1
     6    2   39 1
     7    2   40 1
     8    3    4 1
     9    4    9 ar
    10    4    5 ar
    11    5    6 ar
    12    5   41 1
    13    6    7 ar
    14    6   20 1
    15    7    8 ar
    16    7   42 1
    17    8    9 ar
    18    8   43 1
    19    9   10 1
    20   10   11 1
    21   11   12 1
    22   11   44 1
    23   11   45 1
    24   12   17 ar
    25   12   13 ar
    26   13   14 ar
    27   13   46 1
    28   14   15 ar
    29   14   47 1
    30   15   16 ar
    31   15   19 1
    32   16   17 ar
    33   16   18 1
    34   17   48 1
    35   20   21 1
    36   20   26 1
    37   20   22 1
    38   22   23 2
    39   22   31 1
    40   23   24 1
    41   23   30 1
    42   24   25 1
    43   24   49 1
    44   25   29 2
    45   25   26 1
    46   26   27 1
    47   27   28 2
    48   28   29 1
    49   28   50 1
    50   30   51 1
    51   30   52 1
    52   30   53 1
    53   31   32 2
    54   31   33 1
    55   33   34 1
    56   34   35 1
    57   34   54 1
    58   34   55 1
    59   35   56 1
    60   35   57 1
    61   35   58 1
