@<TRIPOS>MOLECULE
2OJG-19A
 37 39 0 0 0
SMALL
SF_CHARGES


@<TRIPOS>ATOM
1    C        -9.1600   13.4150   41.2390  C.3        1 SUBUNIT      0.1148
2    N       -10.6260   13.2630   41.1770  N.am       1 SUBUNIT     -0.4596
3    C       -11.4360   14.2250   41.9340  C.3        1 SUBUNIT      0.1148
4    C       -11.1760   12.2240   40.4120  C.2        1 SUBUNIT      0.6507
5    O       -10.4080   11.4850   39.8100  O.2        1 SUBUNIT     -0.5506
6    C       -12.6640   11.9330   40.2690  C.2        1 SUBUNIT      0.0596
7    C       -13.7000   12.3210   41.0960  C.2        1 SUBUNIT     -0.1234
8    C       -14.9110   11.8230   40.5940  C.2        1 SUBUNIT     -0.0323
9    C       -14.5920   11.1230   39.4520  C.2        1 SUBUNIT     -0.0128
10   N       -13.2440   11.1880   39.2590  N.pl3      1 SUBUNIT     -0.3227
11   C       -16.2930   12.0050   41.1940  C.2        1 SUBUNIT      0.0578
12   N       -17.2510   11.0900   41.1270  N.pl3      1 SUBUNIT     -0.1985
13   N       -18.3840   11.5640   41.7800  N.2        1 SUBUNIT     -0.3648
14   C       -18.1310   12.7850   42.2610  C.2        1 SUBUNIT      0.1521
15   C       -16.8370   13.1240   41.9330  C.2        1 SUBUNIT     -0.0539
16   C       -16.1830   14.4280   42.3110  C.2        1 SUBUNIT     -0.0246
17   C       -15.4870   15.2460   41.3680  C.2        1 SUBUNIT     -0.1202
18   C       -14.8960   16.4610   41.7790  C.2        1 SUBUNIT     -0.1155
19   C       -15.0050   16.8690   43.1270  C.2        1 SUBUNIT     -0.1156
20   C       -15.6960   16.0630   44.0740  C.2        1 SUBUNIT     -0.1155
21   C       -16.2800   14.8590   43.6720  C.2        1 SUBUNIT     -0.1202
22   H        -8.8505   14.3936   40.8576  H          1 SUBUNIT      0.0289
23   H        -8.6601   12.6468   40.6398  H          1 SUBUNIT      0.0289
24   H        -8.7995   13.3259   42.2691  H          1 SUBUNIT      0.0289
25   H       -11.2010   14.1807   43.0026  H          1 SUBUNIT      0.0289
26   H       -12.5046   14.0173   41.8155  H          1 SUBUNIT      0.0289
27   H       -11.2520   15.2485   41.5911  H          1 SUBUNIT      0.0289
28   H       -13.5876   12.9141   41.9867  H          1 SUBUNIT      0.1046
29   H       -15.2885   10.6079   38.8138  H          1 SUBUNIT      0.0938
30   H       -12.7507   10.7559   38.4935  H          1 SUBUNIT      0.3123
31   H       -17.1524   10.1972   40.6695  H          1 SUBUNIT      0.2851
32   H       -18.8306   13.3902   42.8106  H          1 SUBUNIT      0.0794
33   H       -15.4096   14.9402   40.3393  H          1 SUBUNIT      0.1062
34   H       -14.3659   17.0721   41.0696  H          1 SUBUNIT      0.1065
35   H       -14.5601   17.7985   43.4367  H          1 SUBUNIT      0.1066
36   H       -15.7740   16.3724   45.1016  H          1 SUBUNIT      0.1065
37   H       -16.8026   14.2618   44.3986  H          1 SUBUNIT      0.1062
@<TRIPOS>BOND
     1    1    2 1
     2    2    3 1
     3    2    4 1
     4    4    5 2
     5    4    6 1
     6    6    7 2
     7    6   10 1
     8    7    8 1
     9    8    9 2
    10    8   11 1
    11    9   10 1
    12   11   12 1
    13   11   15 2
    14   12   13 1
    15   13   14 2
    16   14   15 1
    17   15   16 1
    18   16   17 2
    19   16   21 1
    20   17   18 1
    21   18   19 2
    22   19   20 1
    23   20   21 2
    24    1   22 1
    25    1   23 1
    26    1   24 1
    27    3   25 1
    28    3   26 1
    29    3   27 1
    30    7   28 1
    31    9   29 1
    32   10   30 1
    33   12   31 1
    34   14   32 1
    35   17   33 1
    36   18   34 1
    37   19   35 1
    38   20   36 1
    39   21   37 1
