@<TRIPOS>MOLECULE
3NY8-JRZ
 48 49 0 0 0
SMALL
SF_CHARGES


@<TRIPOS>ATOM
1    C         1.2850    0.3310   51.5360  C.3        1 SUBUNIT     -0.0111
2    N         3.4010    8.2360   53.1020  N.4        1 SUBUNIT     -0.3902
3    O         3.1040    4.7170   50.4780  O.3        1 SUBUNIT     -0.3821
4    C         1.8300    1.0520   52.7400  C.3        1 SUBUNIT     -0.0585
5    O         3.5170    8.3590   50.4050  O.3        1 SUBUNIT     -0.5540
6    C         2.7620    2.1350   52.2400  C.3        1 SUBUNIT     -0.0254
7    C         2.1230    2.4980   50.8760  C.2        1 SUBUNIT     -0.0506
8    C         1.2740    1.4540   50.4820  C.2        1 SUBUNIT     -0.0399
9    C         0.5450    1.5650   49.3050  C.2        1 SUBUNIT     -0.0352
10   C        -0.4000    0.4450   48.8930  C.3        1 SUBUNIT     -0.0668
11   C         0.6590    2.6950   48.5030  C.2        1 SUBUNIT     -0.1044
12   C         1.4930    3.7430   48.8900  C.2        1 SUBUNIT     -0.1161
13   C         2.2150    3.6580   50.0900  C.2        1 SUBUNIT      0.1494
14   C         2.9490    6.0530   49.9860  C.3        1 SUBUNIT      0.1785
15   C         3.6180    7.0650   50.9570  C.3        1 SUBUNIT      0.2089
16   C         2.9860    7.0360   52.3810  C.3        1 SUBUNIT      0.1546
17   C         1.4650    7.0340   52.3050  C.3        1 SUBUNIT     -0.1172
18   C         3.4000    8.0860   54.5460  C.3        1 SUBUNIT      0.1713
19   C         4.6070    8.8140   55.1190  C.3        1 SUBUNIT     -0.1194
20   C         2.1430    8.7230   55.1300  C.3        1 SUBUNIT     -0.1194
21   H         1.9403   -0.4946   51.2394  H          1 SUBUNIT      0.0436
22   H         0.2775   -0.0527   51.7275  H          1 SUBUNIT      0.0436
23   H         4.3356    8.4755   52.8101  H          1 SUBUNIT      0.3037
24   H         2.7711    8.9854   52.8620  H          1 SUBUNIT      0.3037
25   H         1.0086    1.4984   53.3101  H          1 SUBUNIT      0.0478
26   H         2.3785    0.3506   53.3774  H          1 SUBUNIT      0.0478
27   H         2.8687    8.3453   49.6971  H          1 SUBUNIT      0.3853
28   H         2.7717    2.9923   52.9212  H          1 SUBUNIT      0.0450
29   H         3.7810    1.7531   52.1185  H          1 SUBUNIT      0.0450
30   H         0.1419   -0.4975   48.7622  H          1 SUBUNIT      0.0483
31   H        -0.8988    0.6805   47.9471  H          1 SUBUNIT      0.0483
32   H        -1.1739    0.2858   49.6511  H          1 SUBUNIT      0.0483
33   H         0.1030    2.7593   47.5840  H          1 SUBUNIT      0.1097
34   H         1.5807    4.6154   48.2663  H          1 SUBUNIT      0.1103
35   H         3.4160    6.1107   48.9973  H          1 SUBUNIT      0.0335
36   H         1.8781    6.2637   49.8973  H          1 SUBUNIT      0.0335
37   H         4.6843    6.8339   51.0500  H          1 SUBUNIT      0.0324
38   H         3.3238    6.1446   52.9198  H          1 SUBUNIT      0.0375
39   H         1.0221    7.0291   53.3064  H          1 SUBUNIT      0.0574
40   H         1.0999    6.1504   51.7712  H          1 SUBUNIT      0.0574
41   H         1.0972    7.9210   51.7787  H          1 SUBUNIT      0.0574
42   H         3.4337    7.0144   54.7686  H          1 SUBUNIT      0.0394
43   H         5.5397    8.4028   54.7189  H          1 SUBUNIT      0.0581
44   H         4.6393    8.7222   56.2097  H          1 SUBUNIT      0.0581
45   H         4.5759    9.8803   54.8717  H          1 SUBUNIT      0.0581
46   H         2.0966    9.7905   54.8907  H          1 SUBUNIT      0.0581
47   H         2.1216    8.6212   56.2200  H          1 SUBUNIT      0.0581
48   H         1.2407    8.2489   54.7300  H          1 SUBUNIT      0.0581
@<TRIPOS>BOND
     1    1    4 1
     2    1    8 1
     3    2   16 1
     4    2   18 1
     5    3   13 1
     6    3   14 1
     7    4    6 1
     8    5   15 1
     9    6    7 1
    10    7    8 2
    11    7   13 1
    12    8    9 1
    13    9   10 1
    14    9   11 2
    15   11   12 1
    16   12   13 2
    17   14   15 1
    18   15   16 1
    19   16   17 1
    20   18   19 1
    21   18   20 1
    22    1   21 1
    23    1   22 1
    24    2   23 1
    25    2   24 1
    26    4   25 1
    27    4   26 1
    28    5   27 1
    29    6   28 1
    30    6   29 1
    31   10   30 1
    32   10   31 1
    33   10   32 1
    34   11   33 1
    35   12   34 1
    36   14   35 1
    37   14   36 1
    38   15   37 1
    39   16   38 1
    40   17   39 1
    41   17   40 1
    42   17   41 1
    43   18   42 1
    44   19   43 1
    45   19   44 1
    46   19   45 1
    47   20   46 1
    48   20   47 1
    49   20   48 1
