@<TRIPOS>MOLECULE
3BKL-KAW
 69 72 0 0 0
SMALL
SF_CHARGES


@<TRIPOS>ATOM
1    C        44.0270   47.3280   39.3110  C.2        1 SUBUNIT     -0.0083
2    C        43.0900   46.3710   39.7150  C.2        1 SUBUNIT     -0.1105
3    C        41.7690   46.5420   39.3440  C.2        1 SUBUNIT     -0.1051
4    C        41.3680   47.6450   38.5800  C.2        1 SUBUNIT     -0.1051
5    C        42.2600   48.5980   38.1680  C.2        1 SUBUNIT     -0.1201
6    C        43.5930   48.4270   38.5420  C.2        1 SUBUNIT      0.0808
7    N        44.6900   49.2040   38.2820  N.pl3      1 SUBUNIT     -0.3241
8    C        45.7960   48.6270   38.8600  C.2        1 SUBUNIT     -0.0111
9    C        45.4400   47.4740   39.4980  C.2        1 SUBUNIT     -0.0565
10   C        46.3430   46.5210   40.2200  C.3        1 SUBUNIT     -0.0544
11   C        46.8120   47.0180   41.5880  C.3        1 SUBUNIT      0.1562
12   C        47.5730   48.3370   41.4420  C.2        1 SUBUNIT      0.7456
13   O        48.7380   48.3000   40.9940  O.co2      1 SUBUNIT     -0.8918
14   O        46.9890   49.3890   41.7800  O.co2      1 SUBUNIT     -0.8918
15   N        45.6760   47.1780   42.4880  N.am       1 SUBUNIT     -0.5871
16   C        45.8720   47.2920   43.7970  C.2        1 SUBUNIT      0.6347
17   O        46.9960   47.2770   44.2980  O.2        1 SUBUNIT     -0.5501
18   C        44.6390   47.4650   44.6780  C.3        1 SUBUNIT     -0.0789
19   C        45.0680   47.2310   46.1390  C.3        1 SUBUNIT     -0.1044
20   C        44.7160   45.8110   46.5900  C.3        1 SUBUNIT      0.5168
21   O        45.1310   44.8520   45.6130  O.3        1 SUBUNIT     -0.5827
22   O        43.2970   45.7300   46.7390  O.3        1 SUBUNIT     -0.5827
23   C        45.3540   45.5030   47.9470  C.3        1 SUBUNIT      0.1413
24   C        46.8750   45.6680   47.9210  C.3        1 SUBUNIT     -0.0544
25   C        47.4990   45.4480   49.2710  C.2        1 SUBUNIT     -0.0475
26   C        47.7080   46.5100   50.1360  C.2        1 SUBUNIT     -0.1154
27   C        48.2660   46.3090   51.3850  C.2        1 SUBUNIT     -0.1125
28   C        48.6220   45.0350   51.7870  C.2        1 SUBUNIT     -0.1126
29   C        48.4170   43.9670   50.9330  C.2        1 SUBUNIT     -0.1125
30   C        47.8590   44.1770   49.6860  C.2        1 SUBUNIT     -0.1154
31   N        45.0470   44.1520   48.4000  N.am       1 SUBUNIT     -0.5899
32   C        44.0130   43.9120   49.1980  C.2        1 SUBUNIT      0.6544
33   O        43.2210   44.7820   49.5600  O.2        1 SUBUNIT     -0.5573
34   C        43.8360   42.4450   49.5920  C.2        1 SUBUNIT     -0.0477
35   C        43.0610   42.1030   50.6870  C.2        1 SUBUNIT     -0.1135
36   C        42.8970   40.7720   51.0230  C.2        1 SUBUNIT     -0.1088
37   C        43.5040   39.7850   50.2690  C.2        1 SUBUNIT     -0.1088
38   C        44.2790   40.1280   49.1770  C.2        1 SUBUNIT     -0.1088
39   C        44.4470   41.4580   48.8390  C.2        1 SUBUNIT     -0.1135
40   H        43.3849   45.5185   40.3016  H          1 SUBUNIT      0.1083
41   H        41.0414   45.8112   39.6509  H          1 SUBUNIT      0.1090
42   H        40.3342   47.7569   38.3036  H          1 SUBUNIT      0.1096
43   H        41.9372   49.4399   37.5808  H          1 SUBUNIT      0.1101
44   H        44.6855   50.0612   37.7517  H          1 SUBUNIT      0.3165
45   H        46.7956   49.0229   38.8177  H          1 SUBUNIT      0.0989
46   H        45.8007   45.5798   40.3583  H          1 SUBUNIT      0.0481
47   H        47.2230   46.3469   39.5920  H          1 SUBUNIT      0.0481
48   H        47.4702   46.2695   42.0414  H          1 SUBUNIT      0.0309
49   H        44.7232   47.2075   42.1602  H          1 SUBUNIT      0.3258
50   H        44.2405   48.4783   44.5624  H          1 SUBUNIT      0.0472
51   H        43.8737   46.7363   44.3911  H          1 SUBUNIT      0.0472
52   H        46.1502   47.3747   46.2238  H          1 SUBUNIT      0.0482
53   H        44.5522   47.9491   46.7850  H          1 SUBUNIT      0.0482
54   H        45.4726   45.3174   44.8460  H          1 SUBUNIT      0.3833
55   H        42.9607   46.5939   46.9884  H          1 SUBUNIT      0.3833
56   H        44.9116   46.2050   48.6616  H          1 SUBUNIT      0.0268
57   H        47.2995   44.9420   47.2198  H          1 SUBUNIT      0.0395
58   H        47.1170   46.6826   47.5878  H          1 SUBUNIT      0.0395
59   H        47.4327   47.5050   49.8327  H          1 SUBUNIT      0.0990
60   H        48.4233   47.1445   52.0445  H          1 SUBUNIT      0.0989
61   H        49.0560   44.8756   52.7586  H          1 SUBUNIT      0.0989
62   H        48.6917   42.9727   51.2389  H          1 SUBUNIT      0.0989
63   H        47.7024   43.3397   49.0286  H          1 SUBUNIT      0.0990
64   H        45.6021   43.3559   48.1277  H          1 SUBUNIT      0.3130
65   H        42.5877   42.8699   51.2749  H          1 SUBUNIT      0.0955
66   H        42.2953   40.5036   51.8737  H          1 SUBUNIT      0.0954
67   H        43.3732   38.7499   50.5321  H          1 SUBUNIT      0.0954
68   H        44.7515   39.3598   48.5901  H          1 SUBUNIT      0.0954
69   H        45.0527   41.7250   47.9907  H          1 SUBUNIT      0.0955
@<TRIPOS>BOND
     1    1    2 1
     2    1    6 2
     3    1    9 1
     4    2    3 2
     5    3    4 1
     6    4    5 2
     7    5    6 1
     8    6    7 1
     9    7    8 1
    10    8    9 2
    11    9   10 1
    12   10   11 1
    13   11   12 1
    14   11   15 1
    15   12   13 2
    16   12   14 1
    17   15   16 1
    18   16   17 2
    19   16   18 1
    20   18   19 1
    21   19   20 1
    22   20   21 1
    23   20   22 1
    24   20   23 1
    25   23   24 1
    26   23   31 1
    27   24   25 1
    28   25   26 2
    29   25   30 1
    30   26   27 1
    31   27   28 2
    32   28   29 1
    33   29   30 2
    34   31   32 1
    35   32   33 2
    36   32   34 1
    37   34   35 2
    38   34   39 1
    39   35   36 1
    40   36   37 2
    41   37   38 1
    42   38   39 2
    43    2   40 1
    44    3   41 1
    45    4   42 1
    46    5   43 1
    47    7   44 1
    48    8   45 1
    49   10   46 1
    50   10   47 1
    51   11   48 1
    52   15   49 1
    53   18   50 1
    54   18   51 1
    55   19   52 1
    56   19   53 1
    57   21   54 1
    58   22   55 1
    59   23   56 1
    60   24   57 1
    61   24   58 1
    62   26   59 1
    63   27   60 1
    64   28   61 1
    65   29   62 1
    66   30   63 1
    67   31   64 1
    68   35   65 1
    69   36   66 1
    70   37   67 1
    71   38   68 1
    72   39   69 1
