@<TRIPOS>MOLECULE
CHEMBL320788
   49    50     0     0     0
SMALL
USER_CHARGES

@<TRIPOS>ATOM
      1 C1          0.0029    1.6542    0.6093 C.3       1 <0>        -0.1770
      2 C2          0.1341    0.1529    0.6190 C.2       1 <0>         0.5039
      3 O1          1.2001   -0.3609    0.8846 O.2       1 <0>        -0.4975
      4 N1         -0.9331   -0.6187    0.3325 N.am      1 <0>        -0.7524
      5 C3         -0.8369   -2.0756    0.4523 C.3       1 <0>         0.1302
      6 H1         -0.1037   -2.3325    1.2168 H         1 <0>         0.1219
      7 C4         -0.4107   -2.6761   -0.8929 C.3       1 <0>         0.0929
      8 H2         -1.2123   -2.5500   -1.6207 H         1 <0>         0.0436
      9 C5         -0.1284   -4.1665   -0.6922 C.3       1 <0>        -0.0840
     10 C6         -1.2716   -4.8159    0.0319 C.2       1 <0>        -0.0662
     11 C7         -2.1852   -4.1474    0.7074 C.2       1 <0>        -0.2396
     12 C8         -2.2019   -2.6511    0.8353 C.3       1 <0>         0.0671
     13 H3         -2.9650   -2.2428    0.1726 H         1 <0>         0.1374
     14 N2         -2.5154   -2.2798    2.2216 N.4       1 <0>        -0.3739
     15 C9         -1.5781   -2.9510    3.1321 C.3       1 <0>        -0.0570
     16 C10        -3.8885   -2.6928    2.5406 C.3       1 <0>         0.0192
     17 C11        -4.2031   -2.3372    3.9951 C.3       1 <0>        -0.1371
     18 C12        -5.6333   -2.7674    4.3274 C.3       1 <0>        -0.1178
     19 C13        -6.6121   -2.0419    3.4018 C.3       1 <0>        -0.1274
     20 C14        -6.2975   -2.3975    1.9474 C.3       1 <0>        -0.1174
     21 C15        -4.8673   -1.9674    1.6151 C.3       1 <0>        -0.1380
     22 C16        -1.3786   -6.2782   -0.0151 C.2       1 <0>         0.5029
     23 O2         -2.2972   -6.8434    0.5632 O.co2     1 <0>        -0.6768
     24 O3         -0.5493   -6.9329   -0.6326 O.co2     1 <0>        -0.6636
     25 N3          0.8022   -2.0004   -1.3728 N.3       1 <0>        -0.8283
     26 H4          0.9364    2.1027    0.9490 H         1 <0>         0.0984
     27 H5         -0.2158    1.9932   -0.4033 H         1 <0>         0.0923
     28 H6         -0.8069    1.9524    1.2751 H         1 <0>         0.0863
     29 H7         -1.7649   -0.2094    0.0470 H         1 <0>         0.3998
     30 H8          0.0018   -4.6436   -1.6635 H         1 <0>         0.0965
     31 H9          0.7840   -4.2859   -0.1079 H         1 <0>         0.0989
     32 H10        -2.9655   -4.7081    1.2004 H         1 <0>         0.1432
     33 H11        -1.6843   -4.0312    3.0314 H         1 <0>         0.1343
     34 H12        -0.5577   -2.6613    2.8814 H         1 <0>         0.1206
     35 H13        -1.7969   -2.6586    4.1591 H         1 <0>         0.1223
     36 H14        -3.9860   -3.7694    2.4005 H         1 <0>         0.1462
     37 H15        -3.5058   -2.8540    4.6545 H         1 <0>         0.0884
     38 H16        -4.1057   -1.2607    4.1352 H         1 <0>         0.0809
     39 H17        -5.7308   -3.8439    4.1873 H         1 <0>         0.0769
     40 H18        -5.8575   -2.5141    5.3636 H         1 <0>         0.0810
     41 H19        -7.6310   -2.3484    3.6386 H         1 <0>         0.0760
     42 H20        -6.5147   -0.9654    3.5419 H         1 <0>         0.0665
     43 H21        -6.3950   -3.4741    1.8073 H         1 <0>         0.0778
     44 H22        -6.9948   -1.8807    1.2880 H         1 <0>         0.0811
     45 H23        -4.7699   -0.8908    1.7552 H         1 <0>         0.0810
     46 H24        -4.6432   -2.2207    0.5789 H         1 <0>         0.0871
     47 H25         1.1014   -2.3802   -2.2584 H         1 <0>         0.3511
     48 H26         0.6596   -1.0036   -1.4365 H         1 <0>         0.3371
     49 H27        -2.4312   -1.2801    2.3293 H         1 <0>         0.4113
@<TRIPOS>BOND
     1    1    2 1
     2    1   26 1
     3    1   27 1
     4    1   28 1
     5    2    3 2
     6    2    4 am
     7    4    5 1
     8    4   29 1
     9    5    6 1
    10    5   12 1
    11    5    7 1
    12    7    8 1
    13    7    9 1
    14    7   25 1
    15    9   10 1
    16    9   30 1
    17    9   31 1
    18   10   11 2
    19   10   22 1
    20   11   12 1
    21   11   32 1
    22   12   13 1
    23   12   14 1
    24   14   15 1
    25   14   16 1
    26   14   49 1
    27   15   33 1
    28   15   34 1
    29   15   35 1
    30   16   21 1
    31   16   17 1
    32   16   36 1
    33   17   18 1
    34   17   37 1
    35   17   38 1
    36   18   19 1
    37   18   39 1
    38   18   40 1
    39   19   20 1
    40   19   41 1
    41   19   42 1
    42   20   21 1
    43   20   43 1
    44   20   44 1
    45   21   45 1
    46   21   46 1
    47   22   23 2
    48   22   24 1
    49   25   47 1
    50   25   48 1
@<TRIPOS>MOLECULE
CHEMBL320788__1
   49    50     0     0     0
SMALL
USER_CHARGES

@<TRIPOS>ATOM
      1 C1          0.4355    1.2614   -0.0323 C.3       1 <0>        -0.1791
      2 C2          0.2506   -0.2339   -0.0034 C.2       1 <0>         0.5063
      3 O1          0.1611   -0.8134    1.0582 O.2       1 <0>        -0.5574
      4 N1          0.1848   -0.9273   -1.1573 N.am      1 <0>        -0.7201
      5 C3          0.0051   -2.3809   -1.1291 C.3       1 <0>         0.1320
      6 H1         -0.6364   -2.6544   -0.2914 H         1 <0>         0.1206
      7 C4          1.3690   -3.0659   -0.9787 C.3       1 <0>         0.0137
      8 H2          1.9556   -2.9166   -1.8852 H         1 <0>         0.1444
      9 C5          1.1394   -4.5621   -0.7556 C.3       1 <0>        -0.0823
     10 C6          0.1977   -5.1006   -1.7931 C.2       1 <0>        -0.1510
     11 C7         -0.5862   -4.3432   -2.5344 C.2       1 <0>        -0.1746
     12 C8         -0.6346   -2.8452   -2.4392 C.3       1 <0>         0.1111
     13 H3         -0.0903   -2.4145   -3.2797 H         1 <0>         0.1044
     14 N2         -2.0321   -2.3947   -2.4852 N.3       1 <0>        -0.5200
     15 C9         -2.8445   -3.0955   -1.4818 C.3       1 <0>         0.0087
     16 C10        -2.5959   -2.5645   -3.8311 C.3       1 <0>         0.0792
     17 C11        -4.0739   -2.1691   -3.8185 C.3       1 <0>        -0.1126
     18 C12        -4.6611   -2.3460   -5.2202 C.3       1 <0>        -0.1210
     19 C13        -3.9033   -1.4554   -6.2067 C.3       1 <0>        -0.1193
     20 C14        -2.4253   -1.8508   -6.2193 C.3       1 <0>        -0.1209
     21 C15        -1.8381   -1.6739   -4.8176 C.3       1 <0>        -0.1082
     22 C16         0.1473   -6.5529   -1.9939 C.2       1 <0>         0.5094
     23 O2         -0.6081   -7.0291   -2.8307 O.co2     1 <0>        -0.6737
     24 O3          0.8607   -7.2883   -1.3246 O.co2     1 <0>        -0.6852
     25 N3          2.0835   -2.4954    0.1710 N.4       1 <0>        -0.6275
     26 H4          1.4999    1.4962   -0.0219 H         1 <0>         0.0990
     27 H5         -0.0169    1.6660   -0.9377 H         1 <0>         0.0901
     28 H6         -0.0426    1.7036    0.8417 H         1 <0>         0.1027
     29 H7          0.2565   -0.4638   -2.0064 H         1 <0>         0.4158
     30 H8          2.0917   -5.0879   -0.8242 H         1 <0>         0.1087
     31 H9          0.7131   -4.7184    0.2353 H         1 <0>         0.0938
     32 H10        -1.2341   -4.8280   -3.2497 H         1 <0>         0.1351
     33 H11        -2.4454   -2.8957   -0.4873 H         1 <0>         0.0621
     34 H12        -3.8744   -2.7430   -1.5376 H         1 <0>         0.0779
     35 H13        -2.8163   -4.1677   -1.6760 H         1 <0>         0.0457
     36 H14        -2.5012   -3.6068   -4.1358 H         1 <0>         0.0558
     37 H15        -4.6138   -2.8037   -3.1156 H         1 <0>         0.0658
     38 H16        -4.1686   -1.1269   -3.5137 H         1 <0>         0.0688
     39 H17        -4.5664   -3.3883   -5.5249 H         1 <0>         0.0641
     40 H18        -5.7141   -2.0644   -5.2112 H         1 <0>         0.0649
     41 H19        -4.3217   -1.5814   -7.2053 H         1 <0>         0.0623
     42 H20        -3.9980   -0.4131   -5.9020 H         1 <0>         0.0612
     43 H21        -2.3306   -2.8930   -6.5241 H         1 <0>         0.0645
     44 H22        -1.8855   -1.2162   -6.9222 H         1 <0>         0.0641
     45 H23        -1.9328   -0.6316   -4.5129 H         1 <0>         0.0685
     46 H24        -0.7852   -1.9555   -4.8266 H         1 <0>         0.0587
     47 H25         1.5415   -2.6405    1.0096 H         1 <0>         0.4387
     48 H26         2.9803   -2.9477    0.2678 H         1 <0>         0.4335
     49 H27         2.2196   -1.5063    0.0254 H         1 <0>         0.4211
@<TRIPOS>BOND
     1    1    2 1
     2    1   26 1
     3    1   27 1
     4    1   28 1
     5    2    3 2
     6    2    4 am
     7    4    5 1
     8    4   29 1
     9    5    6 1
    10    5   12 1
    11    5    7 1
    12    7    8 1
    13    7    9 1
    14    7   25 1
    15    9   10 1
    16    9   30 1
    17    9   31 1
    18   10   11 2
    19   10   22 1
    20   11   12 1
    21   11   32 1
    22   12   13 1
    23   12   14 1
    24   14   15 1
    25   14   16 1
    26   15   33 1
    27   15   34 1
    28   15   35 1
    29   16   21 1
    30   16   17 1
    31   16   36 1
    32   17   18 1
    33   17   37 1
    34   17   38 1
    35   18   19 1
    36   18   39 1
    37   18   40 1
    38   19   20 1
    39   19   41 1
    40   19   42 1
    41   20   21 1
    42   20   43 1
    43   20   44 1
    44   21   45 1
    45   21   46 1
    46   22   23 2
    47   22   24 1
    48   25   47 1
    49   25   48 1
    50   25   49 1
@<TRIPOS>MOLECULE
CHEMBL251787
   50    50     0     0     0
SMALL
USER_CHARGES

@<TRIPOS>ATOM
      1 C1         -0.3725    2.0340    2.2194 C.3       1 <0>        -0.1542
      2 C2         -0.5269    0.6380    1.6125 C.3       1 <0>        -0.1269
      3 C3          0.4414   -0.3268    2.2997 C.3       1 <0>        -0.1408
      4 C4          0.2870   -1.7228    1.6929 C.3       1 <0>         0.1099
      5 C5         -1.1766   -2.1594    1.7839 C.3       1 <0>        -0.1848
      6 C6          1.1634   -2.7132    2.4622 C.3       1 <0>         0.1143
      7 H1          0.7554   -2.8586    3.4624 H         1 <0>         0.1086
      8 C7          1.1899   -4.0523    1.7225 C.3       1 <0>         0.0124
      9 H2          1.5015   -3.8989    0.6893 H         1 <0>         0.1714
     10 C8          2.1630   -5.0215    2.4260 C.3       1 <0>        -0.0699
     11 H3          2.3011   -4.7390    3.4696 H         1 <0>         0.1034
     12 C9          1.4345   -6.3870    2.3191 C.3       1 <0>        -0.1058
     13 C10        -0.0477   -5.9637    2.4726 C.3       1 <0>        -0.0525
     14 H4         -0.2988   -5.8363    3.5256 H         1 <0>         0.1310
     15 N1         -0.1483   -4.6705    1.7563 N.4       1 <0>        -0.4955
     16 C11        -0.9540   -6.9871    1.8383 C.2       1 <0>         0.4944
     17 O1         -1.1037   -8.0774    2.3630 O.co2     1 <0>        -0.6355
     18 O2         -1.5374   -6.7248    0.8003 O.co2     1 <0>        -0.6682
     19 C12         3.4870   -5.0621    1.7073 C.2       1 <0>        -0.1474
     20 C13         4.5840   -4.7183    2.3354 C.2       1 <0>        -0.1498
     21 C14         4.5220   -4.2822    3.7766 C.3       1 <0>        -0.1362
     22 N2          2.5257   -2.1839    2.5627 N.am      1 <0>        -0.7206
     23 C15         3.3068   -2.1207    1.4662 C.2       1 <0>         0.5167
     24 O3          2.8602   -2.4389    0.3844 O.2       1 <0>        -0.5162
     25 C16         4.7351   -1.6547    1.5842 C.3       1 <0>        -0.1809
     26 O4          0.6910   -1.6938    0.3225 O.3       1 <0>        -0.5366
     27 H5          0.6505    2.3817    2.0752 H         1 <0>         0.0530
     28 H6         -1.0623    2.7214    1.7298 H         1 <0>         0.0581
     29 H7         -0.5955    1.9934    3.2856 H         1 <0>         0.0541
     30 H8         -1.5498    0.2903    1.7568 H         1 <0>         0.0695
     31 H9         -0.3039    0.6786    0.5464 H         1 <0>         0.0692
     32 H10         1.4643    0.0209    2.1555 H         1 <0>         0.0708
     33 H11         0.2184   -0.3674    3.3659 H         1 <0>         0.0746
     34 H12        -1.8213   -1.3347    1.4802 H         1 <0>         0.1015
     35 H13        -1.3430   -3.0121    1.1257 H         1 <0>         0.0676
     36 H14        -1.4081   -2.4425    2.8107 H         1 <0>         0.0797
     37 H15         1.6102   -6.8483    1.3472 H         1 <0>         0.0938
     38 H16         1.7356   -7.0545    3.1265 H         1 <0>         0.1098
     39 H17        -0.7912   -4.0621    2.2407 H         1 <0>         0.4111
     40 H18         3.5315   -5.3746    0.6745 H         1 <0>         0.1194
     41 H19         5.5329   -4.7473    1.8204 H         1 <0>         0.1170
     42 H20         5.5252   -4.0373    4.1256 H         1 <0>         0.0655
     43 H21         3.8826   -3.4036    3.8632 H         1 <0>         0.0641
     44 H22         4.1133   -5.0902    4.3834 H         1 <0>         0.0693
     45 H23         2.8656   -1.8789    3.4185 H         1 <0>         0.4110
     46 H24         5.3823   -2.5113    1.7727 H         1 <0>         0.1025
     47 H25         5.0366   -1.1687    0.6564 H         1 <0>         0.0980
     48 H26         4.8194   -0.9472    2.4091 H         1 <0>         0.0810
     49 H27         1.4811   -1.1616    0.1566 H         1 <0>         0.3843
     50 H28        -0.4743   -4.8261    0.8142 H         1 <0>         0.4347
@<TRIPOS>BOND
     1    1    2 1
     2    1   27 1
     3    1   28 1
     4    1   29 1
     5    2    3 1
     6    2   30 1
     7    2   31 1
     8    3    4 1
     9    3   32 1
    10    3   33 1
    11    4    5 1
    12    4    6 1
    13    4   26 1
    14    5   34 1
    15    5   35 1
    16    5   36 1
    17    6    7 1
    18    6    8 1
    19    6   22 1
    20    8    9 1
    21    8   15 1
    22    8   10 1
    23   10   11 1
    24   10   12 1
    25   10   19 1
    26   12   13 1
    27   12   37 1
    28   12   38 1
    29   13   14 1
    30   13   15 1
    31   13   16 1
    32   15   39 1
    33   15   50 1
    34   16   17 2
    35   16   18 1
    36   19   20 2
    37   19   40 1
    38   20   21 1
    39   20   41 1
    40   21   42 1
    41   21   43 1
    42   21   44 1
    43   22   23 am
    44   22   45 1
    45   23   24 2
    46   23   25 1
    47   25   46 1
    48   25   47 1
    49   25   48 1
    50   26   49 1
@<TRIPOS>MOLECULE
CHEMBL183817
   43    43     0     0     0
SMALL
USER_CHARGES

@<TRIPOS>ATOM
      1 C1          0.8651   -0.2269   -1.2348 C.3       1 <0>        -0.1452
      2 C2         -0.0385   -0.0770   -0.0093 C.3       1 <0>        -0.0915
      3 C3         -1.3329   -0.8620   -0.2309 C.3       1 <0>        -0.1473
      4 C4          0.6827   -0.6207    1.2257 C.3       1 <0>        -0.1281
      5 C5         -0.1607   -0.3438    2.4719 C.3       1 <0>         0.1577
      6 H1         -1.1500   -0.7837    2.3462 H         1 <0>         0.0879
      7 C6          0.5199   -0.9604    3.6956 C.3       1 <0>         0.0838
      8 H2          1.5163   -0.5383    3.8265 H         1 <0>         0.1038
      9 C7         -0.3363   -0.7214    4.9647 C.3       1 <0>        -0.1190
     10 H3         -1.4003   -0.7992    4.7412 H         1 <0>         0.1131
     11 C8          0.1342   -1.8972    5.8636 C.3       1 <0>        -0.1103
     12 C9          0.3978   -3.0140    4.8308 C.3       1 <0>         0.0144
     13 H4         -0.4603   -3.6845    4.7841 H         1 <0>         0.0762
     14 O1          0.5976   -2.3880    3.5565 O.3       1 <0>        -0.3445
     15 C10         1.6310   -3.7885    5.2188 C.2       1 <0>         0.4874
     16 O2          1.6413   -4.4429    6.2474 O.co2     1 <0>        -0.6985
     17 O3          2.6183   -3.7606    4.5040 O.co2     1 <0>        -0.6723
     18 C11        -0.0131    0.6086    5.5954 C.2       1 <0>         0.4751
     19 O4          0.8230    1.3255    5.0986 O.2       1 <0>        -0.4848
     20 O5         -0.6542    0.9968    6.7090 O.3       1 <0>        -0.3536
     21 C12        -0.2976    2.2694    7.2526 C.3       1 <0>         0.0345
     22 N1         -0.2901    1.1030    2.6624 N.am      1 <0>        -0.7361
     23 C13         0.8104    1.8605    2.8391 C.2       1 <0>         0.5330
     24 O6          1.9080    1.3445    2.8405 O.2       1 <0>        -0.5224
     25 C14         0.6773    3.3488    3.0351 C.3       1 <0>        -0.1663
     26 H5          1.1715   -1.2682   -1.3350 H         1 <0>         0.0556
     27 H6          0.3200    0.0790   -2.1277 H         1 <0>         0.0481
     28 H7          1.7475    0.4015   -1.1146 H         1 <0>         0.0520
     29 H8         -0.2739    0.9765    0.1419 H         1 <0>         0.0636
     30 H9         -1.0975   -1.9155   -0.3820 H         1 <0>         0.0567
     31 H10        -1.9767   -0.7552    0.6422 H         1 <0>         0.0520
     32 H11        -1.8467   -0.4747   -1.1107 H         1 <0>         0.0473
     33 H12         0.8288   -1.6954    1.1173 H         1 <0>         0.0812
     34 H13         1.6511   -0.1306    1.3261 H         1 <0>         0.0863
     35 H14         1.0493   -1.6368    6.3954 H         1 <0>         0.0767
     36 H15        -0.6507   -2.1908    6.5606 H         1 <0>         0.0875
     37 H16         0.7618    2.2710    7.5088 H         1 <0>         0.0598
     38 H17        -0.4943    3.0475    6.5151 H         1 <0>         0.0561
     39 H18        -0.8884    2.4602    8.1485 H         1 <0>         0.0981
     40 H19        -1.1680    1.5157    2.6613 H         1 <0>         0.3926
     41 H20         0.5782    3.5679    4.0982 H         1 <0>         0.0880
     42 H21         1.5632    3.8477    2.6423 H         1 <0>         0.0846
     43 H22        -0.2060    3.7073    2.5064 H         1 <0>         0.0669
@<TRIPOS>BOND
     1    1    2 1
     2    1   26 1
     3    1   27 1
     4    1   28 1
     5    2    3 1
     6    2    4 1
     7    2   29 1
     8    3   30 1
     9    3   31 1
    10    3   32 1
    11    4    5 1
    12    4   33 1
    13    4   34 1
    14    5    6 1
    15    5    7 1
    16    5   22 1
    17    7    8 1
    18    7   14 1
    19    7    9 1
    20    9   10 1
    21    9   11 1
    22    9   18 1
    23   11   12 1
    24   11   35 1
    25   11   36 1
    26   12   13 1
    27   12   14 1
    28   12   15 1
    29   15   16 2
    30   15   17 1
    31   18   19 2
    32   18   20 1
    33   20   21 1
    34   21   37 1
    35   21   38 1
    36   21   39 1
    37   22   23 am
    38   22   40 1
    39   23   24 2
    40   23   25 1
    41   25   41 1
    42   25   42 1
    43   25   43 1
@<TRIPOS>MOLECULE
CHEMBL400553
   53    53     0     0     0
SMALL
USER_CHARGES

@<TRIPOS>ATOM
      1 C1          1.1188   -0.3292   -2.5702 C.3       1 <0>        -0.1613
      2 C2          0.2290   -0.3546   -1.3257 C.3       1 <0>        -0.1137
      3 C3         -0.6758   -1.5875   -1.3708 C.3       1 <0>        -0.1805
      4 C4         -1.5656   -1.6129   -0.1264 C.3       1 <0>         0.0982
      5 C5         -0.6977   -1.8168    1.1171 C.3       1 <0>        -0.1419
      6 C6         -2.5702   -2.7612   -0.2410 C.3       1 <0>         0.1147
      7 H1         -3.1601   -2.6384   -1.1493 H         1 <0>         0.1028
      8 C7         -1.8186   -4.0927   -0.2971 C.3       1 <0>         0.0002
      9 H2         -1.1356   -4.1687    0.5490 H         1 <0>         0.1766
     10 C8         -2.8228   -5.2640   -0.2680 C.3       1 <0>        -0.0665
     11 H3         -3.8022   -4.9408   -0.6208 H         1 <0>         0.1042
     12 C9         -2.1955   -6.2867   -1.2516 C.3       1 <0>        -0.1055
     13 C10        -1.5784   -5.3529   -2.3225 C.3       1 <0>        -0.0539
     14 H4         -2.3409   -5.0352   -3.0337 H         1 <0>         0.1312
     15 N1         -1.0648   -4.1903   -1.5606 N.4       1 <0>        -0.4994
     16 C11        -0.4512   -6.0500   -3.0398 C.2       1 <0>         0.4952
     17 O1         -0.6925   -6.9553   -3.8199 O.co2     1 <0>        -0.6336
     18 O2          0.7021   -5.7086   -2.8399 O.co2     1 <0>        -0.6687
     19 C12        -2.9232   -5.8454    1.1187 C.2       1 <0>        -0.1427
     20 C13        -4.0732   -5.8481    1.7461 C.2       1 <0>        -0.1525
     21 C14        -5.2957   -5.2697    1.0812 C.3       1 <0>        -0.1385
     22 N2         -3.4588   -2.7507    0.9236 N.am      1 <0>        -0.7108
     23 C15        -3.0153   -3.2017    2.1137 C.2       1 <0>         0.5254
     24 O3         -1.8681   -3.5777    2.2305 O.2       1 <0>        -0.5285
     25 C16        -3.9447   -3.2387    3.2994 C.3       1 <0>        -0.1802
     26 O4         -2.2689   -0.3737   -0.0184 O.3       1 <0>        -0.3523
     27 C17        -3.0467   -0.0444   -1.1711 C.3       1 <0>         0.0126
     28 H5          1.7634    0.5492   -2.5381 H         1 <0>         0.0623
     29 H6          1.7326   -1.2296   -2.5963 H         1 <0>         0.0597
     30 H7          0.4943   -0.2892   -3.4626 H         1 <0>         0.0549
     31 H8          0.8535   -0.3946   -0.4333 H         1 <0>         0.0748
     32 H9         -0.3848    0.5458   -1.2996 H         1 <0>         0.0749
     33 H10        -1.3003   -1.5475   -2.2632 H         1 <0>         0.0778
     34 H11        -0.0620   -2.4879   -1.3970 H         1 <0>         0.0702
     35 H12         0.1520   -1.1349    1.0829 H         1 <0>         0.0638
     36 H13        -1.2894   -1.6155    2.0101 H         1 <0>         0.0757
     37 H14        -0.3374   -2.8452    1.1440 H         1 <0>         0.0883
     38 H15        -1.4245   -6.8795   -0.7595 H         1 <0>         0.0950
     39 H16        -2.9607   -6.9289   -1.6878 H         1 <0>         0.1108
     40 H17        -1.1936   -3.3467   -2.0989 H         1 <0>         0.4128
     41 H18        -2.0472   -6.2599    1.5952 H         1 <0>         0.1213
     42 H19        -4.1452   -6.2648    2.7399 H         1 <0>         0.1181
     43 H20        -6.1508   -5.3604    1.7510 H         1 <0>         0.0658
     44 H21        -5.1222   -4.2179    0.8537 H         1 <0>         0.0655
     45 H22        -5.4982   -5.8125    0.1579 H         1 <0>         0.0685
     46 H23        -4.3664   -2.4192    0.8382 H         1 <0>         0.4112
     47 H24        -4.4555   -4.2012    3.3308 H         1 <0>         0.1026
     48 H25        -3.3704   -3.1022    4.2157 H         1 <0>         0.0971
     49 H26        -4.6806   -2.4397    3.2093 H         1 <0>         0.0804
     50 H27        -2.4077   -0.0494   -2.0541 H         1 <0>         0.0511
     51 H28        -3.8425   -0.7790   -1.2943 H         1 <0>         0.0395
     52 H29        -3.4832    0.9462   -1.0440 H         1 <0>         0.0938
     53 H30        -0.0839   -4.3185   -1.3617 H         1 <0>         0.4331
@<TRIPOS>BOND
     1    1    2 1
     2    1   28 1
     3    1   29 1
     4    1   30 1
     5    2    3 1
     6    2   31 1
     7    2   32 1
     8    3    4 1
     9    3   33 1
    10    3   34 1
    11    4    5 1
    12    4    6 1
    13    4   26 1
    14    5   35 1
    15    5   36 1
    16    5   37 1
    17    6    7 1
    18    6    8 1
    19    6   22 1
    20    8    9 1
    21    8   15 1
    22    8   10 1
    23   10   11 1
    24   10   12 1
    25   10   19 1
    26   12   13 1
    27   12   38 1
    28   12   39 1
    29   13   14 1
    30   13   15 1
    31   13   16 1
    32   15   40 1
    33   15   53 1
    34   16   17 2
    35   16   18 1
    36   19   20 2
    37   19   41 1
    38   20   21 1
    39   20   42 1
    40   21   43 1
    41   21   44 1
    42   21   45 1
    43   22   23 am
    44   22   46 1
    45   23   24 2
    46   23   25 1
    47   25   47 1
    48   25   48 1
    49   25   49 1
    50   26   27 1
    51   27   50 1
    52   27   51 1
    53   27   52 1
@<TRIPOS>MOLECULE
CHEMBL164976
   43    44     0     0     0
SMALL
USER_CHARGES

@<TRIPOS>ATOM
      1 C1         -0.0018    2.2895    1.1747 C.3       1 <0>        -0.1672
      2 C2         -0.3757    0.8059    1.1620 C.3       1 <0>         0.1374
      3 C3         -1.8375    0.6291    1.6242 C.3       1 <0>        -0.1283
      4 C4         -1.7777   -0.6646    2.4786 C.3       1 <0>        -0.1338
      5 C5         -0.3853   -0.5334    3.1447 C.3       1 <0>         0.0898
      6 N1          0.4736    0.0681    2.1084 N.am      1 <0>        -0.6108
      7 C6          1.8152   -0.0408    2.0397 C.2       1 <0>         0.5438
      8 O1          2.4145    0.4318    1.0971 O.2       1 <0>        -0.4866
      9 C7          2.5707   -0.7498    3.1341 C.3       1 <0>         0.0637
     10 H1          2.0234   -0.6645    4.0728 H         1 <0>         0.0999
     11 C8          2.7426   -2.2304    2.7684 C.3       1 <0>         0.0924
     12 H2          3.3443   -2.3180    1.8637 H         1 <0>         0.1382
     13 C9          3.4521   -2.9327    3.9308 C.3       1 <0>         0.0886
     14 H3          2.7615   -3.0382    4.7675 H         1 <0>         0.1442
     15 C10         4.6396   -2.1147    4.3607 C.2       1 <0>        -0.3749
     16 C11         4.7763   -0.8375    4.0309 C.2       1 <0>         0.1419
     17 O2          3.8692   -0.1677    3.2785 O.3       1 <0>        -0.2539
     18 C12         5.9669   -0.1139    4.5038 C.2       1 <0>         0.5225
     19 O3          6.8032   -0.6913    5.1851 O.co2     1 <0>        -0.6488
     20 O4          6.1206    1.0653    4.2157 O.co2     1 <0>        -0.6325
     21 N2          3.9037   -4.2618    3.4978 N.4       1 <0>        -0.6261
     22 N3          1.4290   -2.8408    2.5490 N.am      1 <0>        -0.7455
     23 C13         1.0195   -3.1271    1.2973 C.2       1 <0>         0.5086
     24 O5          1.6959   -2.7948    0.3471 O.2       1 <0>        -0.5059
     25 C14        -0.2788   -3.8602    1.0784 C.3       1 <0>        -0.1771
     26 H4          1.0427    2.4034    0.8847 H         1 <0>         0.0707
     27 H5         -0.6352    2.8298    0.4712 H         1 <0>         0.0691
     28 H6         -0.1466    2.6921    2.1772 H         1 <0>         0.0588
     29 H7         -0.2505    0.4008    0.1579 H         1 <0>         0.0784
     30 H8         -2.1555    1.4773    2.2305 H         1 <0>         0.0830
     31 H9         -2.4991    0.4958    0.7684 H         1 <0>         0.0860
     32 H10        -2.5696   -0.6752    3.2275 H         1 <0>         0.0898
     33 H11        -1.8269   -1.5521    1.8477 H         1 <0>         0.0749
     34 H12        -0.4416    0.1189    4.0162 H         1 <0>         0.0755
     35 H13        -0.0064   -1.5152    3.4285 H         1 <0>         0.0686
     36 H14         5.4069   -2.5839    4.9587 H         1 <0>         0.1659
     37 H15         4.5430   -4.1640    2.7234 H         1 <0>         0.4369
     38 H16         4.3709   -4.7242    4.2633 H         1 <0>         0.4401
     39 H17         0.8540   -3.0389    3.3047 H         1 <0>         0.4085
     40 H18        -1.1055   -3.2532    1.4475 H         1 <0>         0.0958
     41 H19        -0.4142   -4.0495    0.0136 H         1 <0>         0.1007
     42 H20        -0.2559   -4.8082    1.6160 H         1 <0>         0.0924
     43 H21         3.1073   -4.8101    3.2093 H         1 <0>         0.4255
@<TRIPOS>BOND
     1    1    2 1
     2    1   26 1
     3    1   27 1
     4    1   28 1
     5    2    6 1
     6    2    3 1
     7    2   29 1
     8    3    4 1
     9    3   30 1
    10    3   31 1
    11    4    5 1
    12    4   32 1
    13    4   33 1
    14    5    6 1
    15    5   34 1
    16    5   35 1
    17    6    7 am
    18    7    8 2
    19    7    9 1
    20    9   10 1
    21    9   17 1
    22    9   11 1
    23   11   12 1
    24   11   13 1
    25   11   22 1
    26   13   14 1
    27   13   15 1
    28   13   21 1
    29   15   16 2
    30   15   36 1
    31   16   17 1
    32   16   18 1
    33   18   19 2
    34   18   20 1
    35   21   37 1
    36   21   38 1
    37   21   43 1
    38   22   23 am
    39   22   39 1
    40   23   24 2
    41   23   25 1
    42   25   40 1
    43   25   41 1
    44   25   42 1
@<TRIPOS>MOLECULE
CHEMBL164976__1
   42    43     0     0     0
SMALL
USER_CHARGES

@<TRIPOS>ATOM
      1 C1          1.6855   -1.0393   -1.8798 C.3       1 <0>        -0.1596
      2 C2          2.6584   -0.0039   -1.3122 C.3       1 <0>         0.1312
      3 C3          3.9647   -0.0054   -2.1340 C.3       1 <0>        -0.1283
      4 C4          5.0570    0.1960   -1.0506 C.3       1 <0>        -0.1304
      5 C5          4.4647   -0.5990    0.1398 C.3       1 <0>         0.0815
      6 N1          3.0123   -0.3556    0.0707 N.am      1 <0>        -0.5965
      7 C6          2.1516   -0.4410    1.1043 C.2       1 <0>         0.5570
      8 O1          0.9895   -0.1282    0.9532 O.2       1 <0>        -0.5409
      9 C7          2.6330   -0.9250    2.4478 C.3       1 <0>         0.0584
     10 H1          1.9817   -0.5393    3.2321 H         1 <0>         0.1011
     11 C8          2.6257   -2.4594    2.4777 C.3       1 <0>         0.1258
     12 H2          3.3252   -2.8448    1.7359 H         1 <0>         0.1156
     13 C9          3.0539   -2.9143    3.8769 C.3       1 <0>         0.1307
     14 H3          2.2472   -2.7218    4.5842 H         1 <0>         0.0385
     15 C10         4.2819   -2.1533    4.2973 C.2       1 <0>        -0.2475
     16 C11         4.6555   -1.0280    3.7030 C.2       1 <0>         0.0343
     17 O2          3.9728   -0.4764    2.6700 O.3       1 <0>        -0.2782
     18 C12         5.8663   -0.3468    4.1873 C.2       1 <0>         0.5365
     19 O3          6.5036   -0.8202    5.1184 O.co2     1 <0>        -0.6664
     20 O4          6.2360    0.6930    3.6590 O.co2     1 <0>        -0.6665
     21 N2          3.3527   -4.3524    3.8543 N.3       1 <0>        -0.8263
     22 N3          1.2771   -2.9528    2.1880 N.am      1 <0>        -0.7237
     23 C13         1.1117   -4.1396    1.5710 C.2       1 <0>         0.5061
     24 O5          2.0795   -4.7990    1.2556 O.2       1 <0>        -0.5281
     25 C14        -0.2756   -4.6471    1.2731 C.3       1 <0>        -0.1697
     26 H4          0.7813   -1.0600   -1.2714 H         1 <0>         0.0647
     27 H5          1.4277   -0.7722   -2.9047 H         1 <0>         0.0630
     28 H6          2.1542   -2.0233   -1.8677 H         1 <0>         0.0553
     29 H7          2.2027    0.9860   -1.3380 H         1 <0>         0.0754
     30 H8          4.0985   -0.9594   -2.6438 H         1 <0>         0.0755
     31 H9          3.9725    0.8187   -2.8473 H         1 <0>         0.0795
     32 H10         6.0079   -0.2302   -1.3705 H         1 <0>         0.0841
     33 H11         5.1682    1.2508   -0.7992 H         1 <0>         0.0790
     34 H12         4.6768   -1.6624    0.0288 H         1 <0>         0.0633
     35 H13         4.8672   -0.2273    1.0820 H         1 <0>         0.1238
     36 H14         4.8795   -2.5363    5.1112 H         1 <0>         0.1381
     37 H15         3.6376   -4.6769    4.7662 H         1 <0>         0.3415
     38 H16         2.5635   -4.8803    3.5129 H         1 <0>         0.3379
     39 H17         0.5031   -2.4253    2.4403 H         1 <0>         0.4031
     40 H18        -1.0107   -3.9244    1.6272 H         1 <0>         0.0747
     41 H19        -0.3893   -4.7838    0.1977 H         1 <0>         0.0932
     42 H20        -0.4302   -5.6002    1.7789 H         1 <0>         0.0933
@<TRIPOS>BOND
     1    1    2 1
     2    1   26 1
     3    1   27 1
     4    1   28 1
     5    2    6 1
     6    2    3 1
     7    2   29 1
     8    3    4 1
     9    3   30 1
    10    3   31 1
    11    4    5 1
    12    4   32 1
    13    4   33 1
    14    5    6 1
    15    5   34 1
    16    5   35 1
    17    6    7 am
    18    7    8 2
    19    7    9 1
    20    9   10 1
    21    9   17 1
    22    9   11 1
    23   11   12 1
    24   11   13 1
    25   11   22 1
    26   13   14 1
    27   13   15 1
    28   13   21 1
    29   15   16 2
    30   15   36 1
    31   16   17 1
    32   16   18 1
    33   18   19 2
    34   18   20 1
    35   21   37 1
    36   21   38 1
    37   22   23 am
    38   22   39 1
    39   23   24 2
    40   23   25 1
    41   25   40 1
    42   25   41 1
    43   25   42 1
@<TRIPOS>MOLECULE
CHEMBL164976__2
   43    44     0     0     0
SMALL
USER_CHARGES

@<TRIPOS>ATOM
      1 C1         -2.2996    0.3066    1.1235 C.3       1 <0>        -0.1659
      2 C2         -1.2641    1.3202    1.6146 C.3       1 <0>         0.1381
      3 C3         -1.9758    2.5173    2.2795 C.3       1 <0>        -0.1292
      4 C4         -1.9094    2.1662    3.7893 C.3       1 <0>        -0.1308
      5 C5         -0.5286    1.4708    3.8865 C.3       1 <0>         0.0848
      6 N1         -0.4042    0.7023    2.6345 N.am      1 <0>        -0.5830
      7 C6          0.3694   -0.3866    2.4549 C.2       1 <0>         0.5565
      8 O1          0.3207   -0.9992    1.4093 O.2       1 <0>        -0.5295
      9 C7          1.2947   -0.8431    3.5532 C.3       1 <0>         0.0564
     10 H1          1.4991   -1.9080    3.4424 H         1 <0>         0.1142
     11 C8          2.6093   -0.0542    3.4831 C.3       1 <0>         0.0977
     12 H2          2.4128    1.0037    3.6573 H         1 <0>         0.1270
     13 C9          3.5494   -0.5905    4.5677 C.3       1 <0>         0.0869
     14 H3          3.9193   -1.5731    4.2746 H         1 <0>         0.1464
     15 C10         2.8012   -0.7037    5.8682 C.2       1 <0>        -0.3666
     16 C11         1.4762   -0.7053    5.9249 C.2       1 <0>         0.1324
     17 O2          0.6898   -0.5983    4.8259 O.3       1 <0>        -0.2674
     18 C12         0.8299   -0.8292    7.2408 C.2       1 <0>         0.5223
     19 O3          1.5132   -0.9278    8.2510 O.co2     1 <0>        -0.6484
     20 O4         -0.3907   -0.8337    7.3249 O.co2     1 <0>        -0.6350
     21 N2          4.6823    0.3300    4.7329 N.4       1 <0>        -0.6264
     22 N3          3.2224   -0.2320    2.1645 N.am      1 <0>        -0.7411
     23 C13         2.9586    0.6441    1.1749 C.2       1 <0>         0.5157
     24 O5          2.1571    1.5367    1.3530 O.2       1 <0>        -0.5115
     25 C14         3.6596    0.5145   -0.1528 C.3       1 <0>        -0.1727
     26 H4         -2.9143   -0.0202    1.9622 H         1 <0>         0.0584
     27 H5         -2.9332    0.7714    0.3680 H         1 <0>         0.0640
     28 H6         -1.7891   -0.5535    0.6903 H         1 <0>         0.0699
     29 H7         -0.6572    1.6651    0.7775 H         1 <0>         0.0769
     30 H8         -1.4417    3.4453    2.0755 H         1 <0>         0.0749
     31 H9         -3.0108    2.5852    1.9445 H         1 <0>         0.0839
     32 H10        -1.9368    3.0676    4.4016 H         1 <0>         0.0851
     33 H11        -2.7116    1.4826    4.0671 H         1 <0>         0.0808
     34 H12         0.2661    2.2135    3.9563 H         1 <0>         0.0597
     35 H13        -0.5005    0.8018    4.7466 H         1 <0>         0.1150
     36 H14         3.3625   -0.7869    6.7871 H         1 <0>         0.1656
     37 H15         4.3398    1.2394    5.0043 H         1 <0>         0.4355
     38 H16         5.3013   -0.0233    5.4471 H         1 <0>         0.4406
     39 H17         3.8183   -0.9804    2.0037 H         1 <0>         0.4083
     40 H18         3.3596   -0.4170   -0.6327 H         1 <0>         0.0971
     41 H19         3.3880    1.3557   -0.7906 H         1 <0>         0.0982
     42 H20         4.7382    0.5112    0.0045 H         1 <0>         0.0880
     43 H21         5.1838    0.4060    3.8606 H         1 <0>         0.4271
@<TRIPOS>BOND
     1    1    2 1
     2    1   26 1
     3    1   27 1
     4    1   28 1
     5    2    6 1
     6    2    3 1
     7    2   29 1
     8    3    4 1
     9    3   30 1
    10    3   31 1
    11    4    5 1
    12    4   32 1
    13    4   33 1
    14    5    6 1
    15    5   34 1
    16    5   35 1
    17    6    7 am
    18    7    8 2
    19    7    9 1
    20    9   10 1
    21    9   17 1
    22    9   11 1
    23   11   12 1
    24   11   13 1
    25   11   22 1
    26   13   14 1
    27   13   15 1
    28   13   21 1
    29   15   16 2
    30   15   36 1
    31   16   17 1
    32   16   18 1
    33   18   19 2
    34   18   20 1
    35   21   37 1
    36   21   38 1
    37   21   43 1
    38   22   23 am
    39   22   39 1
    40   23   24 2
    41   23   25 1
    42   25   40 1
    43   25   41 1
    44   25   42 1
@<TRIPOS>MOLECULE
CHEMBL164976__3
   42    43     0     0     0
SMALL
USER_CHARGES

@<TRIPOS>ATOM
      1 C1         -1.8632    2.0095    1.1558 C.3       1 <0>        -0.1629
      2 C2         -0.6002    2.6123    1.7741 C.3       1 <0>         0.1330
      3 C3         -0.9626    3.8783    2.5787 C.3       1 <0>        -0.1291
      4 C4         -1.0623    3.3487    4.0337 C.3       1 <0>        -0.1292
      5 C5          0.0537    2.2744    4.0508 C.3       1 <0>         0.0811
      6 N1          0.0022    1.6554    2.7138 N.am      1 <0>        -0.5966
      7 C6          0.4351    0.4171    2.4043 C.2       1 <0>         0.5574
      8 O1          0.2591   -0.0257    1.2890 O.2       1 <0>        -0.5400
      9 C7          1.1377   -0.4173    3.4441 C.3       1 <0>         0.0581
     10 H1          1.0322   -1.4742    3.1996 H         1 <0>         0.1007
     11 C8          2.6253   -0.0428    3.4889 C.3       1 <0>         0.1238
     12 H2          2.7334    0.9976    3.7954 H         1 <0>         0.1185
     13 C9          3.3197   -0.9557    4.5050 C.3       1 <0>         0.1311
     14 H3          3.4048   -1.9608    4.0918 H         1 <0>         0.0391
     15 C10         2.5106   -1.0012    5.7727 C.2       1 <0>        -0.2486
     16 C11         1.2400   -0.6237    5.8155 C.2       1 <0>         0.0354
     17 O2          0.5698   -0.1614    4.7317 O.3       1 <0>        -0.2783
     18 C12         0.5246   -0.7109    7.0982 C.2       1 <0>         0.5364
     19 O3          1.1026   -1.1246    8.0942 O.co2     1 <0>        -0.6665
     20 O4         -0.6483   -0.3699    7.1690 O.co2     1 <0>        -0.6663
     21 N2          4.6604   -0.4316    4.7981 N.3       1 <0>        -0.8267
     22 N3          3.2224   -0.2320    2.1645 N.am      1 <0>        -0.7233
     23 C13         4.1773    0.6134    1.7288 C.2       1 <0>         0.5073
     24 O5          4.5422    1.5309    2.4330 O.2       1 <0>        -0.5304
     25 C14         4.7915    0.4188    0.3665 C.3       1 <0>        -0.1693
     26 H4         -2.5799    1.7801    1.9443 H         1 <0>         0.0585
     27 H5         -2.3041    2.7240    0.4607 H         1 <0>         0.0601
     28 H6         -1.6054    1.0948    0.6218 H         1 <0>         0.0711
     29 H7          0.1142    2.8608    0.9893 H         1 <0>         0.0701
     30 H8         -0.1753    4.6275    2.4941 H         1 <0>         0.0736
     31 H9         -1.9193    4.2838    2.2495 H         1 <0>         0.0811
     32 H10        -0.8533    4.1406    4.7529 H         1 <0>         0.0836
     33 H11        -2.0384    2.9010    4.2205 H         1 <0>         0.0786
     34 H12         1.0255    2.7396    4.2162 H         1 <0>         0.0639
     35 H13        -0.1477    1.5304    4.8214 H         1 <0>         0.1234
     36 H14         2.9806   -1.3537    6.6789 H         1 <0>         0.1382
     37 H15         5.1392   -1.0167    5.4663 H         1 <0>         0.3428
     38 H16         5.2019   -0.3304    3.9527 H         1 <0>         0.3364
     39 H17         2.9306   -0.9658    1.6013 H         1 <0>         0.4028
     40 H18         4.3407   -0.4492   -0.1147 H         1 <0>         0.0748
     41 H19         4.6133    1.3051   -0.2425 H         1 <0>         0.0931
     42 H20         5.8647    0.2596    0.4712 H         1 <0>         0.0933
@<TRIPOS>BOND
     1    1    2 1
     2    1   26 1
     3    1   27 1
     4    1   28 1
     5    2    6 1
     6    2    3 1
     7    2   29 1
     8    3    4 1
     9    3   30 1
    10    3   31 1
    11    4    5 1
    12    4   32 1
    13    4   33 1
    14    5    6 1
    15    5   34 1
    16    5   35 1
    17    6    7 am
    18    7    8 2
    19    7    9 1
    20    9   10 1
    21    9   17 1
    22    9   11 1
    23   11   12 1
    24   11   13 1
    25   11   22 1
    26   13   14 1
    27   13   15 1
    28   13   21 1
    29   15   16 2
    30   15   36 1
    31   16   17 1
    32   16   18 1
    33   18   19 2
    34   18   20 1
    35   21   37 1
    36   21   38 1
    37   22   23 am
    38   22   39 1
    39   23   24 2
    40   23   25 1
    41   25   40 1
    42   25   41 1
    43   25   42 1
@<TRIPOS>MOLECULE
CHEMBL280383
   40    41     0     0     0
SMALL
USER_CHARGES

@<TRIPOS>ATOM
      1 C1         -0.0184    1.5028    0.0103 C.3       1 <0>        -0.1776
      2 C2          0.0021   -0.0041    0.0020 C.2       1 <0>         0.5003
      3 O1          1.0605   -0.5961   -0.0113 O.2       1 <0>        -0.4927
      4 N1         -1.1558   -0.6938    0.0094 N.am      1 <0>        -0.7529
      5 C3         -1.1360   -2.1586    0.0013 C.3       1 <0>         0.1343
      6 H1         -0.2845   -2.5164    0.5802 H         1 <0>         0.1171
      7 C4         -1.0266   -2.6644   -1.4423 C.3       1 <0>         0.0934
      8 H2         -1.9464   -2.4364   -1.9809 H         1 <0>         0.0435
      9 C5         -0.8109   -4.1789   -1.4116 C.3       1 <0>        -0.0848
     10 C6         -1.8286   -4.8276   -0.5192 C.2       1 <0>        -0.0631
     11 C7         -2.5429   -4.1726    0.3744 C.2       1 <0>        -0.2481
     12 C8         -2.4333   -2.6936    0.6111 C.3       1 <0>         0.0804
     13 H3         -3.2835   -2.1922    0.1487 H         1 <0>         0.1343
     14 N2         -2.4396   -2.4252    2.0553 N.4       1 <0>        -0.3863
     15 C9         -2.4374   -0.9608    2.3041 C.3       1 <0>        -0.0073
     16 C10        -3.0022   -0.8447    3.7422 C.3       1 <0>        -0.1445
     17 C11        -4.0813   -1.9511    3.7802 C.3       1 <0>        -0.1421
     18 C12        -3.6873   -2.9356    2.6635 C.3       1 <0>        -0.0081
     19 C13        -2.0409   -6.2734   -0.6492 C.2       1 <0>         0.5024
     20 O2         -2.8623   -6.8376    0.0612 O.co2     1 <0>        -0.6763
     21 O3         -1.3967   -6.9152   -1.4681 O.co2     1 <0>        -0.6635
     22 N3          0.1095   -2.0137   -2.1085 N.3       1 <0>        -0.8272
     23 H4          1.0042    1.8801    0.0026 H         1 <0>         0.0989
     24 H5         -0.5455    1.8639   -0.8728 H         1 <0>         0.0907
     25 H6         -0.5286    1.8543    0.9071 H         1 <0>         0.0875
     26 H7         -2.0023   -0.2203    0.0200 H         1 <0>         0.3980
     27 H8         -0.9085   -4.5784   -2.4210 H         1 <0>         0.0967
     28 H9          0.1892   -4.3939   -1.0351 H         1 <0>         0.0997
     29 H10        -3.2457   -4.7323    0.9738 H         1 <0>         0.1452
     30 H11        -1.4234   -0.5639    2.2558 H         1 <0>         0.1324
     31 H12        -3.0863   -0.4489    1.5935 H         1 <0>         0.1264
     32 H13        -2.2234   -1.0400    4.4794 H         1 <0>         0.0960
     33 H14        -3.4496    0.1362    3.9028 H         1 <0>         0.1126
     34 H15        -4.0741   -2.4535    4.7474 H         1 <0>         0.1030
     35 H16        -5.0653   -1.5268    3.5807 H         1 <0>         0.1008
     36 H17        -4.4757   -2.9797    1.9121 H         1 <0>         0.1313
     37 H18        -3.5167   -3.9263    3.0851 H         1 <0>         0.1359
     38 H19         0.2007   -2.3322   -3.0616 H         1 <0>         0.3506
     39 H20         0.0244   -1.0090   -2.0696 H         1 <0>         0.3362
     40 H21        -1.6382   -2.8546    2.4929 H         1 <0>         0.4269
@<TRIPOS>BOND
     1    1    2 1
     2    1   23 1
     3    1   24 1
     4    1   25 1
     5    2    3 2
     6    2    4 am
     7    4    5 1
     8    4   26 1
     9    5    6 1
    10    5   12 1
    11    5    7 1
    12    7    8 1
    13    7    9 1
    14    7   22 1
    15    9   10 1
    16    9   27 1
    17    9   28 1
    18   10   11 2
    19   10   19 1
    20   11   12 1
    21   11   29 1
    22   12   13 1
    23   12   14 1
    24   14   18 1
    25   14   15 1
    26   14   40 1
    27   15   16 1
    28   15   30 1
    29   15   31 1
    30   16   17 1
    31   16   32 1
    32   16   33 1
    33   17   18 1
    34   17   34 1
    35   17   35 1
    36   18   36 1
    37   18   37 1
    38   19   20 2
    39   19   21 1
    40   22   38 1
    41   22   39 1
@<TRIPOS>MOLECULE
CHEMBL280383__1
   40    41     0     0     0
SMALL
USER_CHARGES

@<TRIPOS>ATOM
      1 C1         -0.0184    1.5028    0.0103 C.3       1 <0>        -0.1803
      2 C2          0.0021   -0.0041    0.0020 C.2       1 <0>         0.5047
      3 O1          0.0203   -0.6160    1.0489 O.2       1 <0>        -0.5485
      4 N1          0.0001   -0.6716   -1.1688 N.am      1 <0>        -0.7367
      5 C3          0.0199   -2.1365   -1.1769 C.3       1 <0>         0.1304
      6 H1         -0.5559   -2.5151   -0.3324 H         1 <0>         0.1298
      7 C4          1.4676   -2.6326   -1.0772 C.3       1 <0>         0.0160
      8 H2          2.0042   -2.3828   -1.9925 H         1 <0>         0.1434
      9 C5          1.4491   -4.1511   -0.8905 C.3       1 <0>        -0.0817
     10 C6          0.5618   -4.7875   -1.9203 C.2       1 <0>        -0.1549
     11 C7         -0.3372   -4.1263   -2.6219 C.2       1 <0>        -0.1356
     12 C8         -0.5857   -2.6515   -2.4841 C.3       1 <0>         0.1145
     13 H3         -0.1275   -2.1303   -3.3247 H         1 <0>         0.0626
     14 N2         -2.0321   -2.3947   -2.4852 N.3       1 <0>        -0.5031
     15 C9         -2.3139   -0.9373   -2.4308 C.3       1 <0>         0.0306
     16 C10        -3.7662   -0.8371   -2.9612 C.3       1 <0>        -0.1248
     17 C11        -3.8026   -1.9094   -4.0743 C.3       1 <0>        -0.1326
     18 C12        -2.6556   -2.8795   -3.7357 C.3       1 <0>         0.0356
     19 C13         0.7034   -6.2279   -2.1601 C.2       1 <0>         0.5118
     20 O2         -0.0025   -6.7820   -2.9921 O.co2     1 <0>        -0.6728
     21 O3          1.5276   -6.8752   -1.5283 O.co2     1 <0>        -0.6855
     22 N3          2.1287   -1.9983    0.0711 N.4       1 <0>        -0.6275
     23 H4          1.0042    1.8801    0.0026 H         1 <0>         0.1010
     24 H5         -0.5455    1.8639   -0.8728 H         1 <0>         0.0891
     25 H6         -0.5286    1.8543    0.9071 H         1 <0>         0.1050
     26 H7         -0.0145   -0.1822   -2.0061 H         1 <0>         0.4130
     27 H8          2.4618   -4.5405   -0.9957 H         1 <0>         0.1088
     28 H9          1.0746   -4.3882    0.1054 H         1 <0>         0.0956
     29 H10        -0.9322   -4.6772   -3.3352 H         1 <0>         0.1387
     30 H11        -2.2526   -0.5717   -1.4058 H         1 <0>         0.0818
     31 H12        -1.6294   -0.3887   -3.0777 H         1 <0>         0.0401
     32 H13        -4.4817   -1.0741   -2.1738 H         1 <0>         0.0767
     33 H14        -3.9588    0.1534   -3.3734 H         1 <0>         0.0728
     34 H15        -4.7578   -2.4343   -4.0629 H         1 <0>         0.0768
     35 H16        -3.6342   -1.4496   -5.0481 H         1 <0>         0.0686
     36 H17        -1.9207   -2.8810   -4.5407 H         1 <0>         0.0520
     37 H18        -3.0507   -3.8846   -3.5882 H         1 <0>         0.0912
     38 H19         1.6340   -2.2363    0.9176 H         1 <0>         0.4394
     39 H20         3.0808   -2.3263    0.1344 H         1 <0>         0.4342
     40 H21         2.1255   -0.9966   -0.0501 H         1 <0>         0.4200
@<TRIPOS>BOND
     1    1    2 1
     2    1   23 1
     3    1   24 1
     4    1   25 1
     5    2    3 2
     6    2    4 am
     7    4    5 1
     8    4   26 1
     9    5    6 1
    10    5   12 1
    11    5    7 1
    12    7    8 1
    13    7    9 1
    14    7   22 1
    15    9   10 1
    16    9   27 1
    17    9   28 1
    18   10   11 2
    19   10   19 1
    20   11   12 1
    21   11   29 1
    22   12   13 1
    23   12   14 1
    24   14   18 1
    25   14   15 1
    26   15   16 1
    27   15   30 1
    28   15   31 1
    29   16   17 1
    30   16   32 1
    31   16   33 1
    32   17   18 1
    33   17   34 1
    34   17   35 1
    35   18   36 1
    36   18   37 1
    37   19   20 2
    38   19   21 1
    39   22   38 1
    40   22   39 1
    41   22   40 1
@<TRIPOS>MOLECULE
CHEMBL309192
   41    41     0     0     0
SMALL
USER_CHARGES

@<TRIPOS>ATOM
      1 C1         -0.0187    1.5258    0.0104 C.3       1 <0>        -0.1526
      2 C2          0.0021   -0.0041    0.0020 C.3       1 <0>        -0.1179
      3 C3          0.7182   -0.4975   -1.2568 C.3       1 <0>         0.0878
      4 C4          0.6303   -2.0233   -1.3286 C.3       1 <0>        -0.1763
      5 O1          2.0903   -0.1010   -1.2105 O.3       1 <0>        -0.3716
      6 C5          2.6751    0.1200   -2.4955 C.3       1 <0>         0.1172
      7 H1          2.1924   -0.5266   -3.2283 H         1 <0>         0.0857
      8 C6          2.4785    1.5544   -2.8916 C.2       1 <0>        -0.1568
      9 C7          3.4273    2.4675   -2.8316 C.2       1 <0>        -0.1518
     10 C8          4.8272    2.1864   -2.3689 C.3       1 <0>        -0.0861
     11 C9          4.8724    0.8643   -1.6002 C.3       1 <0>         0.0167
     12 H2          4.3599    0.9784   -0.6449 H         1 <0>         0.1655
     13 C10         4.1686   -0.2071   -2.4362 C.3       1 <0>         0.1360
     14 H3          4.3116   -1.1826   -1.9715 H         1 <0>         0.1177
     15 N1          4.7244   -0.2172   -3.7917 N.am      1 <0>        -0.7384
     16 C11         4.6439   -1.3321   -4.5447 C.2       1 <0>         0.5168
     17 O2          4.1113   -2.3270   -4.1002 O.2       1 <0>        -0.5298
     18 C12         5.2156   -1.3425   -5.9390 C.3       1 <0>        -0.1750
     19 N2          6.2699    0.4764   -1.3671 N.4       1 <0>        -0.6325
     20 C13         3.0961    3.8368   -3.2408 C.2       1 <0>         0.5103
     21 O3          1.9651    4.1042   -3.6243 O.co2     1 <0>        -0.6717
     22 O4          3.9507    4.7117   -3.1988 O.co2     1 <0>        -0.6871
     23 H4          1.0039    1.9031    0.0027 H         1 <0>         0.0605
     24 H5         -0.5459    1.8868   -0.8726 H         1 <0>         0.0563
     25 H6         -0.5289    1.8773    0.9072 H         1 <0>         0.0540
     26 H7          0.5293   -0.3651    0.8851 H         1 <0>         0.0681
     27 H8         -1.0205   -0.3814    0.0098 H         1 <0>         0.0762
     28 H9          0.2444   -0.0644   -2.1377 H         1 <0>         0.0669
     29 H10         1.1041   -2.4564   -0.4477 H         1 <0>         0.0622
     30 H11        -0.4163   -2.3257   -1.3639 H         1 <0>         0.0683
     31 H12         1.1405   -2.3748   -2.2254 H         1 <0>         0.0580
     32 H13         1.5037    1.8557   -3.2458 H         1 <0>         0.1308
     33 H14         5.4880    2.1244   -3.2336 H         1 <0>         0.0876
     34 H15         5.1618    2.9944   -1.7182 H         1 <0>         0.1112
     35 H16         5.1504    0.5784   -4.1472 H         1 <0>         0.4087
     36 H17         5.6494   -0.3676   -6.1611 H         1 <0>         0.0807
     37 H18         5.9880   -2.1084   -6.0092 H         1 <0>         0.1003
     38 H19         4.4229   -1.5592   -6.6551 H         1 <0>         0.1036
     39 H20         6.7325    1.1932   -0.8283 H         1 <0>         0.4389
     40 H21         6.2969   -0.3956   -0.8601 H         1 <0>         0.4336
     41 H22         6.7403    0.3652   -2.2528 H         1 <0>         0.4280
@<TRIPOS>BOND
     1    1    2 1
     2    1   23 1
     3    1   24 1
     4    1   25 1
     5    2    3 1
     6    2   26 1
     7    2   27 1
     8    3    4 1
     9    3    5 1
    10    3   28 1
    11    4   29 1
    12    4   30 1
    13    4   31 1
    14    5    6 1
    15    6    7 1
    16    6   13 1
    17    6    8 1
    18    8    9 2
    19    8   32 1
    20    9   10 1
    21    9   20 1
    22   10   11 1
    23   10   33 1
    24   10   34 1
    25   11   12 1
    26   11   13 1
    27   11   19 1
    28   13   14 1
    29   13   15 1
    30   15   16 am
    31   15   35 1
    32   16   17 2
    33   16   18 1
    34   18   36 1
    35   18   37 1
    36   18   38 1
    37   19   39 1
    38   19   40 1
    39   19   41 1
    40   20   21 2
    41   20   22 1
@<TRIPOS>MOLECULE
CHEMBL309192__1
   41    41     0     0     0
SMALL
USER_CHARGES

@<TRIPOS>ATOM
      1 C1         -0.0187    1.5258    0.0104 C.3       1 <0>        -0.1491
      2 C2          0.0021   -0.0041    0.0020 C.3       1 <0>        -0.1219
      3 C3          0.7182   -0.4975   -1.2568 C.3       1 <0>         0.0914
      4 C4          0.8493   -2.0210   -1.2049 C.3       1 <0>        -0.1824
      5 O1         -0.0359   -0.1233   -2.4115 O.3       1 <0>        -0.3718
      6 C5          0.7591    0.1000   -3.5777 C.3       1 <0>         0.1181
      7 H1          1.7445    0.4586   -3.2800 H         1 <0>         0.0857
      8 C6          0.9059   -1.1882   -4.3340 C.2       1 <0>        -0.1575
      9 C7          0.2326   -1.4747   -5.4305 C.2       1 <0>        -0.1532
     10 C8         -0.7588   -0.5448   -6.0673 C.3       1 <0>        -0.0858
     11 C9         -1.1797    0.5382   -5.0718 C.3       1 <0>         0.0167
     12 H2         -1.7903    0.0952   -4.2851 H         1 <0>         0.1655
     13 C10         0.0819    1.1510   -4.4596 C.3       1 <0>         0.1355
     14 H3         -0.1909    2.0158   -3.8548 H         1 <0>         0.1176
     15 N1          0.9974    1.5615   -5.5272 N.am      1 <0>        -0.7384
     16 C11         1.9076    2.5290   -5.2995 C.2       1 <0>         0.5167
     17 O2          1.9688    3.0599   -4.2108 O.2       1 <0>        -0.5297
     18 C12         2.8493    2.9512   -6.3977 C.3       1 <0>        -0.1750
     19 N2         -1.9504    1.5765   -5.7689 N.4       1 <0>        -0.6325
     20 C13         0.4661   -2.7766   -6.0650 C.2       1 <0>         0.5102
     21 O3          1.2673   -3.5612   -5.5751 O.co2     1 <0>        -0.6720
     22 O4         -0.1405   -3.0781   -7.0842 O.co2     1 <0>        -0.6871
     23 H4          1.0039    1.9031    0.0027 H         1 <0>         0.0526
     24 H5         -0.5459    1.8868   -0.8726 H         1 <0>         0.0547
     25 H6         -0.5289    1.8773    0.9072 H         1 <0>         0.0548
     26 H7          0.5293   -0.3651    0.8851 H         1 <0>         0.0781
     27 H8         -1.0205   -0.3814    0.0098 H         1 <0>         0.0712
     28 H9          1.7103   -0.0491   -1.3098 H         1 <0>         0.0628
     29 H10        -0.1428   -2.4694   -1.1520 H         1 <0>         0.0644
     30 H11         1.3594   -2.3725   -2.1017 H         1 <0>         0.0690
     31 H12         1.4245   -2.3064   -0.3242 H         1 <0>         0.0658
     32 H13         1.6028   -1.9227   -3.9580 H         1 <0>         0.1330
     33 H14        -0.3054   -0.0763   -6.9408 H         1 <0>         0.0876
     34 H15        -1.6369   -1.1108   -6.3782 H         1 <0>         0.1111
     35 H16         0.9485    1.1368   -6.3980 H         1 <0>         0.4088
     36 H17         2.6457    2.3673   -7.2953 H         1 <0>         0.0807
     37 H18         2.7054    4.0101   -6.6126 H         1 <0>         0.1003
     38 H19         3.8779    2.7816   -6.0794 H         1 <0>         0.1036
     39 H20        -2.7729    1.1640   -6.1828 H         1 <0>         0.4389
     40 H21        -2.2267    2.2894   -5.1104 H         1 <0>         0.4334
     41 H22        -1.3809    1.9894   -6.4923 H         1 <0>         0.4280
@<TRIPOS>BOND
     1    1    2 1
     2    1   23 1
     3    1   24 1
     4    1   25 1
     5    2    3 1
     6    2   26 1
     7    2   27 1
     8    3    4 1
     9    3    5 1
    10    3   28 1
    11    4   29 1
    12    4   30 1
    13    4   31 1
    14    5    6 1
    15    6    7 1
    16    6   13 1
    17    6    8 1
    18    8    9 2
    19    8   32 1
    20    9   10 1
    21    9   20 1
    22   10   11 1
    23   10   33 1
    24   10   34 1
    25   11   12 1
    26   11   13 1
    27   11   19 1
    28   13   14 1
    29   13   15 1
    30   15   16 am
    31   15   35 1
    32   16   17 2
    33   16   18 1
    34   18   36 1
    35   18   37 1
    36   18   38 1
    37   19   39 1
    38   19   40 1
    39   19   41 1
    40   20   21 2
    41   20   22 1
@<TRIPOS>MOLECULE
CHEMBL251786
   49    50     0     0     0
SMALL
USER_CHARGES

@<TRIPOS>ATOM
      1 C1         -0.0649    1.4778    0.0013 C.3       1 <0>        -0.1340
      2 C2         -0.0478   -0.0291    0.0021 C.2       1 <0>        -0.1416
      3 C3          0.5482   -0.6769    0.9723 C.2       1 <0>        -0.1549
      4 C4          1.2167    0.0848    2.0876 C.3       1 <0>        -0.0693
      5 H1          1.1232    1.1592    1.9288 H         1 <0>         0.1056
      6 C5          2.7082   -0.3232    2.2134 C.3       1 <0>        -0.1060
      7 C6          2.9929   -0.0125    3.7040 C.3       1 <0>        -0.0497
      8 H2          3.2026    1.0488    3.8371 H         1 <0>         0.1308
      9 N1          1.7490   -0.3841    4.4114 N.4       1 <0>        -0.4833
     10 C7          0.6252   -0.3182    3.4547 C.3       1 <0>         0.0170
     11 H3          0.1464   -1.2944    3.3783 H         1 <0>         0.1489
     12 C8         -0.3920    0.7296    3.9110 C.3       1 <0>         0.1466
     13 H4          0.1193    1.6728    4.1033 H         1 <0>         0.1136
     14 C9         -1.0776    0.2507    5.1923 C.3       1 <0>         0.0631
     15 H5         -1.5015   -0.7373    5.0130 H         1 <0>         0.0917
     16 C10        -2.2048    1.2107    5.5298 C.3       1 <0>        -0.1371
     17 C11        -3.0099    0.6876    6.7245 C.3       1 <0>        -0.1007
     18 C12        -2.3118    1.1211    7.9939 C.2       1 <0>        -0.1377
     19 C13        -1.1686    0.5918    8.3176 C.2       1 <0>        -0.1906
     20 C14        -0.5486   -0.4666    7.4293 C.3       1 <0>         0.0959
     21 O1         -0.1026    0.1486    6.2200 O.3       1 <0>        -0.3994
     22 N2         -1.3969    0.9236    2.8628 N.am      1 <0>        -0.7159
     23 C15        -2.1568   -0.1131    2.4575 C.2       1 <0>         0.5226
     24 O2         -2.0087   -1.2066    2.9607 O.2       1 <0>        -0.5319
     25 C16        -3.1904    0.0865    1.3792 C.3       1 <0>        -0.1741
     26 C17         4.1494   -0.8411    4.2011 C.2       1 <0>         0.4957
     27 O3          5.2827   -0.5928    3.8262 O.co2     1 <0>        -0.6369
     28 O4          3.9518   -1.7596    4.9780 O.co2     1 <0>        -0.6686
     29 H6          0.9584    1.8527   -0.0214 H         1 <0>         0.0704
     30 H7         -0.6021    1.8346   -0.8775 H         1 <0>         0.0663
     31 H8         -0.5632    1.8360    0.9021 H         1 <0>         0.0616
     32 H9         -0.5269   -0.5750   -0.7972 H         1 <0>         0.1165
     33 H10         0.5604   -1.7568    0.9729 H         1 <0>         0.1180
     34 H11         2.8418   -1.3844    2.0033 H         1 <0>         0.0932
     35 H12         3.3356    0.2843    1.5612 H         1 <0>         0.1101
     36 H13         1.8326   -1.3212    4.7759 H         1 <0>         0.4317
     37 H14        -1.7860    2.1864    5.7765 H         1 <0>         0.0761
     38 H15        -2.8634    1.3113    4.6672 H         1 <0>         0.0798
     39 H16        -4.0173    1.1031    6.6989 H         1 <0>         0.0768
     40 H17        -3.0597   -0.4006    6.6858 H         1 <0>         0.0745
     41 H18        -2.7613    1.8690    8.6302 H         1 <0>         0.1148
     42 H19        -0.6623    0.9067    9.2181 H         1 <0>         0.1199
     43 H20         0.2987   -0.9223    7.9417 H         1 <0>         0.1072
     44 H21        -1.2913   -1.2304    7.1990 H         1 <0>         0.0693
     45 H22        -1.5153    1.7982    2.4604 H         1 <0>         0.4132
     46 H23        -3.1775    1.1260    1.0515 H         1 <0>         0.0788
     47 H24        -2.9642   -0.5637    0.5342 H         1 <0>         0.1010
     48 H25        -4.1773   -0.1583    1.7721 H         1 <0>         0.0992
     49 H26         1.5843    0.2605    5.1700 H         1 <0>         0.4220
@<TRIPOS>BOND
     1    1    2 1
     2    1   29 1
     3    1   30 1
     4    1   31 1
     5    2    3 2
     6    2   32 1
     7    3    4 1
     8    3   33 1
     9    4    5 1
    10    4   10 1
    11    4    6 1
    12    6    7 1
    13    6   34 1
    14    6   35 1
    15    7    8 1
    16    7    9 1
    17    7   26 1
    18    9   10 1
    19    9   36 1
    20    9   49 1
    21   10   11 1
    22   10   12 1
    23   12   13 1
    24   12   14 1
    25   12   22 1
    26   14   15 1
    27   14   21 1
    28   14   16 1
    29   16   17 1
    30   16   37 1
    31   16   38 1
    32   17   18 1
    33   17   39 1
    34   17   40 1
    35   18   19 2
    36   18   41 1
    37   19   20 1
    38   19   42 1
    39   20   21 1
    40   20   43 1
    41   20   44 1
    42   22   23 am
    43   22   45 1
    44   23   24 2
    45   23   25 1
    46   25   46 1
    47   25   47 1
    48   25   48 1
    49   26   27 2
    50   26   28 1
@<TRIPOS>MOLECULE
CHEMBL1161290
   57    58     0     0     0
SMALL
USER_CHARGES

@<TRIPOS>ATOM
      1 C1         -0.6348    0.8473   -0.2898 C.3       1 <0>        -0.1520
      2 C2         -0.3753   -0.6593   -0.2294 C.3       1 <0>        -0.1440
      3 C3          0.3281   -1.1075   -1.5121 C.3       1 <0>         0.0993
      4 N1          0.4720   -2.5654   -1.5063 N.am      1 <0>        -0.6027
      5 C4         -0.5358   -3.4036   -2.1604 C.3       1 <0>         0.1212
      6 C5         -0.1427   -3.6269   -3.6221 C.3       1 <0>        -0.0942
      7 C6         -1.1795   -4.4891   -4.2950 C.ar      1 <0>        -0.0831
      8 C7         -1.0466   -5.8650   -4.2846 C.ar      1 <0>        -0.1125
      9 C8         -1.9975   -6.6559   -4.9019 C.ar      1 <0>        -0.1172
     10 C9         -3.0816   -6.0710   -5.5291 C.ar      1 <0>        -0.1221
     11 C10        -3.2150   -4.6951   -5.5387 C.ar      1 <0>        -0.1190
     12 C11        -2.2663   -3.9044   -4.9178 C.ar      1 <0>        -0.1165
     13 C12         1.5317   -3.1355   -0.8992 C.2       1 <0>         0.5302
     14 O1          1.6033   -4.3430   -0.8118 O.2       1 <0>        -0.5011
     15 C13         2.6276   -2.2725   -0.3288 C.3       1 <0>         0.0712
     16 H1          2.1992   -1.3583    0.0821 H         1 <0>         0.0946
     17 C14         3.3682   -3.0391    0.7757 C.3       1 <0>         0.1308
     18 H2          3.8416   -3.9258    0.3542 H         1 <0>         0.1247
     19 C15         4.4374   -2.1129    1.3654 C.3       1 <0>         0.1232
     20 H3          3.9589   -1.3504    1.9799 H         1 <0>         0.0492
     21 C16         5.1986   -1.4521    0.2486 C.2       1 <0>        -0.2170
     22 C17         4.7469   -1.4044   -0.9768 C.2       1 <0>         0.0578
     23 O2          3.5678   -1.9454   -1.3559 O.3       1 <0>        -0.2895
     24 C18         5.5830   -0.7097   -2.0206 C.3       1 <0>         0.3312
     25 O3          5.9207   -1.6364   -3.0546 O.3       1 <0>        -0.5672
     26 O4          4.8419    0.3773   -2.5785 O.3       1 <0>        -0.5772
     27 N2          5.3637   -2.8980    2.1921 N.3       1 <0>        -0.8270
     28 N3          2.4228   -3.4339    1.8229 N.am      1 <0>        -0.7259
     29 C19         2.6384   -4.5564    2.5371 C.2       1 <0>         0.5136
     30 O5          3.6606   -5.1894    2.3780 O.2       1 <0>        -0.5187
     31 C20         1.6092   -5.0249    3.5333 C.3       1 <0>        -0.1707
     32 H4          0.3163    1.3797   -0.2993 H         1 <0>         0.0579
     33 H5         -1.1927    1.0839   -1.1958 H         1 <0>         0.0596
     34 H6         -1.2129    1.1516    0.5827 H         1 <0>         0.0604
     35 H7          0.2568   -0.8850    0.6294 H         1 <0>         0.0590
     36 H8         -1.3236   -1.1877   -0.1315 H         1 <0>         0.0707
     37 H9         -0.2636   -0.8043   -2.3759 H         1 <0>         0.0886
     38 H10         1.3137   -0.6453   -1.5665 H         1 <0>         0.0853
     39 H11        -0.5963   -4.3646   -1.6496 H         1 <0>         0.0887
     40 H12        -1.5052   -2.9072   -2.1166 H         1 <0>         0.0819
     41 H13        -0.0823   -2.6659   -4.1330 H         1 <0>         0.0749
     42 H14         0.8267   -4.1233   -3.6659 H         1 <0>         0.0772
     43 H15        -0.1996   -6.3220   -3.7946 H         1 <0>         0.1226
     44 H16        -1.8933   -7.7309   -4.8944 H         1 <0>         0.1225
     45 H17        -3.8243   -6.6889   -6.0119 H         1 <0>         0.1216
     46 H18        -4.0618   -4.2381   -6.0290 H         1 <0>         0.1220
     47 H19        -2.3724   -2.8296   -4.9220 H         1 <0>         0.1206
     48 H20         6.1545   -0.9997    0.4679 H         1 <0>         0.1351
     49 H21         6.4954   -0.3295   -1.5612 H         1 <0>         0.1222
     50 H22         5.1555   -2.0158   -3.5081 H         1 <0>         0.3904
     51 H23         5.3197    0.8708   -3.2591 H         1 <0>         0.3920
     52 H24         6.0787   -2.3094    2.5926 H         1 <0>         0.3421
     53 H25         4.8673   -3.4036    2.9105 H         1 <0>         0.3512
     54 H26         1.6416   -2.8875    2.0021 H         1 <0>         0.3966
     55 H27         0.7285   -4.3855    3.4737 H         1 <0>         0.0735
     56 H28         1.3275   -6.0535    3.3081 H         1 <0>         0.0981
     57 H29         2.0275   -4.9745    4.5386 H         1 <0>         0.0957
@<TRIPOS>BOND
     1    1    2 1
     2    1   32 1
     3    1   33 1
     4    1   34 1
     5    2    3 1
     6    2   35 1
     7    2   36 1
     8    3    4 1
     9    3   37 1
    10    3   38 1
    11    4    5 1
    12    4   13 am
    13    5    6 1
    14    5   39 1
    15    5   40 1
    16    6    7 1
    17    6   41 1
    18    6   42 1
    19    7   12 ar
    20    7    8 ar
    21    8    9 ar
    22    8   43 1
    23    9   10 ar
    24    9   44 1
    25   10   11 ar
    26   10   45 1
    27   11   12 ar
    28   11   46 1
    29   12   47 1
    30   13   14 2
    31   13   15 1
    32   15   16 1
    33   15   23 1
    34   15   17 1
    35   17   18 1
    36   17   19 1
    37   17   28 1
    38   19   20 1
    39   19   21 1
    40   19   27 1
    41   21   22 2
    42   21   48 1
    43   22   23 1
    44   22   24 1
    45   24   25 1
    46   24   26 1
    47   24   49 1
    48   25   50 1
    49   26   51 1
    50   27   52 1
    51   27   53 1
    52   28   29 am
    53   28   54 1
    54   29   30 2
    55   29   31 1
    56   31   55 1
    57   31   56 1
    58   31   57 1
@<TRIPOS>MOLECULE
CHEMBL1161290__1
   58    59     0     0     0
SMALL
USER_CHARGES

@<TRIPOS>ATOM
      1 C1         -0.0752    1.4712    0.8429 C.3       1 <0>        -0.1554
      2 C2         -0.0079   -0.0297    0.5535 C.3       1 <0>        -0.1505
      3 C3          0.5671   -0.2539   -0.8465 C.3       1 <0>         0.0954
      4 N1          0.4943   -1.6780   -1.1820 N.am      1 <0>        -0.6008
      5 C4         -0.6707   -2.2032   -1.8983 C.3       1 <0>         0.1214
      6 C5         -0.4214   -2.1232   -3.4057 C.3       1 <0>        -0.0916
      7 C6         -1.6199   -2.6634   -4.1425 C.ar      1 <0>        -0.0899
      8 C7         -1.6911   -4.0083   -4.4541 C.ar      1 <0>        -0.1122
      9 C8         -2.7905   -4.5038   -5.1300 C.ar      1 <0>        -0.1161
     10 C9         -3.8187   -3.6546   -5.4938 C.ar      1 <0>        -0.1176
     11 C10        -3.7479   -2.3099   -5.1814 C.ar      1 <0>        -0.1174
     12 C11        -2.6505   -1.8151   -4.5017 C.ar      1 <0>        -0.1161
     13 C12         1.4992   -2.5051   -0.8318 C.2       1 <0>         0.5213
     14 O1          1.4108   -3.6943   -1.0529 O.2       1 <0>        -0.4775
     15 C13         2.7326   -1.9522   -0.1653 C.3       1 <0>         0.0615
     16 H1          2.6694   -0.8651   -0.1192 H         1 <0>         0.1132
     17 C14         2.8546   -2.5243    1.2539 C.3       1 <0>         0.0949
     18 H2          2.9713   -3.6069    1.2054 H         1 <0>         0.1418
     19 C15         4.0878   -1.9003    1.9160 C.3       1 <0>         0.0845
     20 H3          3.8776   -0.8612    2.1696 H         1 <0>         0.1558
     21 C16         5.2509   -1.9587    0.9636 C.2       1 <0>        -0.3410
     22 C17         5.0988   -2.1582   -0.3189 C.2       1 <0>         0.1581
     23 O2          3.8944   -2.3369   -0.9056 O.3       1 <0>        -0.2698
     24 C18         6.3291   -2.1896   -1.1886 C.3       1 <0>         0.3193
     25 O3          6.4221   -3.4598   -1.8366 O.3       1 <0>        -0.5700
     26 O4          6.2428   -1.1577   -2.1734 O.3       1 <0>        -0.5615
     27 N2          4.4175   -2.6456    3.1382 N.4       1 <0>        -0.6273
     28 N3          1.6554   -2.1905    2.0264 N.am      1 <0>        -0.7480
     29 C19         0.6369   -3.0698    2.1033 C.2       1 <0>         0.5082
     30 O5          0.7508   -4.1739    1.6146 O.2       1 <0>        -0.4907
     31 C20        -0.6435   -2.6810    2.7964 C.3       1 <0>        -0.1748
     32 H4          0.9345    1.8805    0.8761 H         1 <0>         0.0561
     33 H5         -0.6429    1.9679    0.0560 H         1 <0>         0.0643
     34 H6         -0.5652    1.6345    1.8028 H         1 <0>         0.0639
     35 H7          0.6324   -0.5136    1.2911 H         1 <0>         0.0592
     36 H8         -1.0099   -0.4553    0.6072 H         1 <0>         0.0744
     37 H9         -0.0090    0.3203   -1.5721 H         1 <0>         0.0956
     38 H10         1.6071    0.0719   -0.8686 H         1 <0>         0.0776
     39 H11        -0.8354   -3.2420   -1.6119 H         1 <0>         0.0914
     40 H12        -1.5505   -1.6123   -1.6436 H         1 <0>         0.0854
     41 H13        -0.2567   -1.0844   -3.6920 H         1 <0>         0.0745
     42 H14         0.4584   -2.7141   -3.6603 H         1 <0>         0.0760
     43 H15        -0.8878   -4.6718   -4.1699 H         1 <0>         0.1215
     44 H16        -2.8458   -5.5544   -5.3741 H         1 <0>         0.1242
     45 H17        -4.6773   -4.0417   -6.0225 H         1 <0>         0.1242
     46 H18        -4.5511   -1.6463   -5.4659 H         1 <0>         0.1241
     47 H19        -2.5968   -0.7652   -4.2544 H         1 <0>         0.1202
     48 H20         6.2495   -1.8306    1.3546 H         1 <0>         0.1639
     49 H21         7.2139   -2.0305   -0.5722 H         1 <0>         0.1331
     50 H22         7.1924   -3.5513   -2.4140 H         1 <0>         0.4053
     51 H23         5.4773   -1.2360   -2.7591 H         1 <0>         0.3963
     52 H24         4.6123   -3.6074    2.9034 H         1 <0>         0.4402
     53 H25         5.2294   -2.2347    3.5740 H         1 <0>         0.4427
     54 H26         1.5944   -1.3366    2.4825 H         1 <0>         0.4099
     55 H27        -1.3589   -2.3152    2.0598 H         1 <0>         0.1035
     56 H28        -1.0592   -3.5502    3.3060 H         1 <0>         0.1044
     57 H29        -0.4387   -1.8963    3.5247 H         1 <0>         0.0839
     58 H30         3.6371   -2.6067    3.7767 H         1 <0>         0.4371
@<TRIPOS>BOND
     1    1    2 1
     2    1   32 1
     3    1   33 1
     4    1   34 1
     5    2    3 1
     6    2   35 1
     7    2   36 1
     8    3    4 1
     9    3   37 1
    10    3   38 1
    11    4    5 1
    12    4   13 am
    13    5    6 1
    14    5   39 1
    15    5   40 1
    16    6    7 1
    17    6   41 1
    18    6   42 1
    19    7   12 ar
    20    7    8 ar
    21    8    9 ar
    22    8   43 1
    23    9   10 ar
    24    9   44 1
    25   10   11 ar
    26   10   45 1
    27   11   12 ar
    28   11   46 1
    29   12   47 1
    30   13   14 2
    31   13   15 1
    32   15   16 1
    33   15   23 1
    34   15   17 1
    35   17   18 1
    36   17   19 1
    37   17   28 1
    38   19   20 1
    39   19   21 1
    40   19   27 1
    41   21   22 2
    42   21   48 1
    43   22   23 1
    44   22   24 1
    45   24   25 1
    46   24   26 1
    47   24   49 1
    48   25   50 1
    49   26   51 1
    50   27   52 1
    51   27   53 1
    52   27   58 1
    53   28   29 am
    54   28   54 1
    55   29   30 2
    56   29   31 1
    57   31   55 1
    58   31   56 1
    59   31   57 1
@<TRIPOS>MOLECULE
CHEMBL1161284
   44    44     0     0     0
SMALL
USER_CHARGES

@<TRIPOS>ATOM
      1 C1         -4.9488   -0.7755    2.9881 C.3       1 <0>        -0.1541
      2 C2         -4.1337    0.3890    2.4220 C.3       1 <0>         0.1062
      3 N1         -3.4319   -0.0484    1.2127 N.am      1 <0>        -0.5948
      4 C3         -4.1194   -0.0284   -0.0808 C.3       1 <0>         0.1096
      5 C4         -3.9009    1.3282   -0.7536 C.3       1 <0>        -0.1672
      6 C5         -2.1539   -0.4691    1.2902 C.2       1 <0>         0.5349
      7 O1         -1.5418   -0.7386    0.2784 O.2       1 <0>        -0.5261
      8 C6         -1.4853   -0.6046    2.6340 C.3       1 <0>         0.0639
      9 H1         -0.6850   -1.3421    2.5736 H         1 <0>         0.1104
     10 C7         -0.9085    0.7513    3.0642 C.3       1 <0>         0.1229
     11 H2         -1.7154    1.4755    3.1763 H         1 <0>         0.1193
     12 C8         -0.1934    0.5618    4.4064 C.3       1 <0>         0.1239
     13 H3          0.7407    0.0229    4.2476 H         1 <0>         0.0509
     14 C9         -1.0750   -0.2259    5.3367 C.2       1 <0>        -0.2189
     15 C10        -2.0900   -0.9315    4.9127 C.2       1 <0>         0.0535
     16 O2         -2.4459   -1.0142    3.6115 O.3       1 <0>        -0.2840
     17 C11        -2.9049   -1.6928    5.9263 C.3       1 <0>         0.3313
     18 O3         -4.2591   -1.2382    5.8873 O.3       1 <0>        -0.5691
     19 O4         -2.8619   -3.0881    5.6211 O.3       1 <0>        -0.5706
     20 N2          0.0935    1.8754    4.9982 N.3       1 <0>        -0.8275
     21 N3          0.0447    1.2250    2.0576 N.am      1 <0>        -0.7277
     22 C12         0.2279    2.5474    1.8727 C.2       1 <0>         0.5102
     23 O5         -0.3299    3.3441    2.5973 O.2       1 <0>        -0.5235
     24 C13         1.1259    3.0361    0.7655 C.3       1 <0>        -0.1722
     25 H4         -5.3982   -0.4778    3.9354 H         1 <0>         0.0755
     26 H5         -5.7342   -1.0462    2.2824 H         1 <0>         0.0444
     27 H6         -4.2945   -1.6322    3.1497 H         1 <0>         0.0689
     28 H7         -4.8018    1.2144    2.1760 H         1 <0>         0.0712
     29 H8         -3.4071    0.7188    3.1646 H         1 <0>         0.0861
     30 H9         -3.7196   -0.8181   -0.7170 H         1 <0>         0.0834
     31 H10        -5.1864   -0.1905    0.0723 H         1 <0>         0.0805
     32 H11        -2.8340    1.4902   -0.9067 H         1 <0>         0.0582
     33 H12        -4.4124    1.3430   -1.7160 H         1 <0>         0.0682
     34 H13        -4.3008    2.1179   -0.1175 H         1 <0>         0.0560
     35 H14        -0.8608   -0.2078    6.3951 H         1 <0>         0.1338
     36 H15        -2.4942   -1.5258    6.9221 H         1 <0>         0.1203
     37 H16        -4.8425   -1.6858    6.5153 H         1 <0>         0.3902
     38 H17        -3.2125   -3.3107    4.7478 H         1 <0>         0.3884
     39 H18         0.5653    1.7773    5.8847 H         1 <0>         0.3429
     40 H19         0.6304    2.4481    4.3643 H         1 <0>         0.3513
     41 H20         0.5439    0.5869    1.5242 H         1 <0>         0.4068
     42 H21         1.4639    2.1876    0.1706 H         1 <0>         0.0775
     43 H22         0.5748    3.7291    0.1299 H         1 <0>         0.0977
     44 H23         1.9887    3.5450    1.1954 H         1 <0>         0.0969
@<TRIPOS>BOND
     1    1    2 1
     2    1   25 1
     3    1   26 1
     4    1   27 1
     5    2    3 1
     6    2   28 1
     7    2   29 1
     8    3    4 1
     9    3    6 am
    10    4    5 1
    11    4   30 1
    12    4   31 1
    13    5   32 1
    14    5   33 1
    15    5   34 1
    16    6    7 2
    17    6    8 1
    18    8    9 1
    19    8   16 1
    20    8   10 1
    21   10   11 1
    22   10   12 1
    23   10   21 1
    24   12   13 1
    25   12   14 1
    26   12   20 1
    27   14   15 2
    28   14   35 1
    29   15   16 1
    30   15   17 1
    31   17   18 1
    32   17   19 1
    33   17   36 1
    34   18   37 1
    35   19   38 1
    36   20   39 1
    37   20   40 1
    38   21   22 am
    39   21   41 1
    40   22   23 2
    41   22   24 1
    42   24   42 1
    43   24   43 1
    44   24   44 1
@<TRIPOS>MOLECULE
CHEMBL1161284__1
   45    45     0     0     0
SMALL
USER_CHARGES

@<TRIPOS>ATOM
      1 C1          1.3479    1.6561   -0.8327 C.3       1 <0>        -0.1703
      2 C2          0.4261    0.6888   -0.0874 C.3       1 <0>         0.1124
      3 N1          1.0654    0.2700    1.1624 N.am      1 <0>        -0.6004
      4 C3          0.8466    1.0384    2.3904 C.3       1 <0>         0.0924
      5 C4         -0.4238    0.5415    3.0833 C.3       1 <0>        -0.1800
      6 C5          1.8549   -0.8221    1.1825 C.2       1 <0>         0.5223
      7 O1          2.1207   -1.3974    0.1484 O.2       1 <0>        -0.4823
      8 C6          2.4075   -1.3285    2.4899 C.3       1 <0>         0.0640
      9 H1          2.2087   -0.6028    3.2786 H         1 <0>         0.1135
     10 C7          1.7519   -2.6705    2.8439 C.3       1 <0>         0.0956
     11 H2          1.9950   -3.4111    2.0819 H         1 <0>         0.1393
     12 C8          2.2990   -3.1261    4.2011 C.3       1 <0>         0.0850
     13 H3          1.8669   -2.5125    4.9916 H         1 <0>         0.1570
     14 C9          3.7961   -2.9779    4.2127 C.2       1 <0>        -0.3396
     15 C10         4.4345   -2.2323    3.3500 C.2       1 <0>         0.1579
     16 O2          3.8177   -1.5358    2.3696 O.3       1 <0>        -0.2723
     17 C11         5.9353   -2.1435    3.4540 C.3       1 <0>         0.3195
     18 O3          6.5256   -2.6164    2.2417 O.3       1 <0>        -0.5617
     19 O4          6.3181   -0.7841    3.6716 O.3       1 <0>        -0.5738
     20 N2          1.9443   -4.5340    4.4245 N.4       1 <0>        -0.6279
     21 N3          0.2987   -2.5044    2.9261 N.am      1 <0>        -0.7472
     22 C12        -0.4665   -2.7169    1.8372 C.2       1 <0>         0.5089
     23 O5          0.0359   -3.1328    0.8147 O.2       1 <0>        -0.4931
     24 C13        -1.9465   -2.4377    1.8901 C.3       1 <0>        -0.1733
     25 H4          2.2919    1.1591   -1.0562 H         1 <0>         0.0613
     26 H5          0.8722    1.9677   -1.7626 H         1 <0>         0.0735
     27 H6          1.5364    2.5308   -0.2101 H         1 <0>         0.0581
     28 H7         -0.5179    1.1858    0.1361 H         1 <0>         0.0832
     29 H8          0.2376   -0.1859   -0.7100 H         1 <0>         0.0872
     30 H9          1.6989    0.9080    3.0573 H         1 <0>         0.0786
     31 H10         0.7365    2.0943    2.1435 H         1 <0>         0.0938
     32 H11        -0.6386    1.1735    3.9450 H         1 <0>         0.0775
     33 H12        -1.2592    0.5839    2.3844 H         1 <0>         0.0684
     34 H13        -0.2787   -0.4869    3.4142 H         1 <0>         0.0504
     35 H14         4.3647   -3.5074    4.9628 H         1 <0>         0.1641
     36 H15         6.2785   -2.7556    4.2881 H         1 <0>         0.1323
     37 H16         6.2641   -2.1171    1.4559 H         1 <0>         0.3991
     38 H17         7.2729   -0.6519    3.7487 H         1 <0>         0.4062
     39 H18         2.3445   -5.1019    3.6928 H         1 <0>         0.4400
     40 H19         2.3046   -4.8338    5.3181 H         1 <0>         0.4430
     41 H20        -0.1128   -2.2416    3.7643 H         1 <0>         0.4096
     42 H21        -2.1977   -1.9905    2.8519 H         1 <0>         0.0811
     43 H22        -2.2154   -1.7500    1.0884 H         1 <0>         0.1051
     44 H23        -2.4969   -3.3706    1.7684 H         1 <0>         0.1049
     45 H24         0.9403   -4.6333    4.4162 H         1 <0>         0.4367
@<TRIPOS>BOND
     1    1    2 1
     2    1   25 1
     3    1   26 1
     4    1   27 1
     5    2    3 1
     6    2   28 1
     7    2   29 1
     8    3    4 1
     9    3    6 am
    10    4    5 1
    11    4   30 1
    12    4   31 1
    13    5   32 1
    14    5   33 1
    15    5   34 1
    16    6    7 2
    17    6    8 1
    18    8    9 1
    19    8   16 1
    20    8   10 1
    21   10   11 1
    22   10   12 1
    23   10   21 1
    24   12   13 1
    25   12   14 1
    26   12   20 1
    27   14   15 2
    28   14   35 1
    29   15   16 1
    30   15   17 1
    31   17   18 1
    32   17   19 1
    33   17   36 1
    34   18   37 1
    35   19   38 1
    36   20   39 1
    37   20   40 1
    38   20   45 1
    39   21   22 am
    40   21   41 1
    41   22   23 2
    42   22   24 1
    43   24   42 1
    44   24   43 1
    45   24   44 1
@<TRIPOS>MOLECULE
CHEMBL70936
   53    54     0     0     0
SMALL
USER_CHARGES

@<TRIPOS>ATOM
      1 C1         -0.2711    1.3792    0.3412 C.3       1 <0>        -0.1534
      2 C2         -0.0426   -0.1335    0.3165 C.3       1 <0>        -0.1243
      3 C3          0.6266   -0.5267   -1.0020 C.3       1 <0>        -0.1118
      4 C4          0.8551   -2.0393   -1.0266 C.3       1 <0>        -0.0398
      5 C5          1.5143   -2.4267   -2.3253 C.2       1 <0>         0.1964
      6 N1          0.9072   -2.7556   -3.4329 N.2       1 <0>        -0.2847
      7 N2          1.7779   -3.0259   -4.3400 N.2       1 <0>        -0.2657
      8 C6          2.9799   -2.8815   -3.8522 C.2       1 <0>         0.1644
      9 N3          2.8469   -2.4923   -2.5612 N.pl3     1 <0>        -0.4467
     10 C7          3.9251   -2.2039   -1.6122 C.3       1 <0>         0.1081
     11 C8          4.2267   -3.4565   -0.7870 C.3       1 <0>        -0.1437
     12 C9          5.2814   -3.1280    0.2716 C.3       1 <0>        -0.1441
     13 C10         4.2754   -3.1016   -4.5898 C.3       1 <0>         0.1732
     14 H1          4.0817   -3.6317   -5.5223 H         1 <0>         0.1222
     15 C11         4.9351   -1.7491   -4.8911 C.3       1 <0>         0.0870
     16 H2          5.1869   -1.2467   -3.9572 H         1 <0>         0.1248
     17 C12         6.2112   -2.0070   -5.6994 C.3       1 <0>         0.0797
     18 H3          5.9450   -2.3017   -6.7144 H         1 <0>         0.1469
     19 C13         7.0027   -3.1086   -5.0483 C.2       1 <0>        -0.3606
     20 C14         6.4647   -3.9416   -4.1677 C.2       1 <0>         0.1325
     21 O1          5.1689   -3.8674   -3.7767 O.3       1 <0>        -0.2720
     22 C15         7.3131   -4.9950   -3.5886 C.2       1 <0>         0.5241
     23 O2          8.4867   -5.0876   -3.9221 O.co2     1 <0>        -0.6468
     24 O3          6.8450   -5.7785   -2.7737 O.co2     1 <0>        -0.6341
     25 N4          7.0202   -0.7816   -5.7415 N.4       1 <0>        -0.6235
     26 N5          4.0168   -0.9140   -5.6693 N.am      1 <0>        -0.7246
     27 C16         4.0116    0.4227   -5.4972 C.2       1 <0>         0.5152
     28 O4          4.7671    0.9342   -4.6982 O.2       1 <0>        -0.5499
     29 C17         3.0669    1.2818   -6.2977 C.3       1 <0>        -0.1770
     30 H4          0.6862    1.8927    0.2523 H         1 <0>         0.0523
     31 H5         -0.9145    1.6631   -0.4916 H         1 <0>         0.0548
     32 H6         -0.7479    1.6593    1.2805 H         1 <0>         0.0575
     33 H7          0.6007   -0.4174    1.1494 H         1 <0>         0.0646
     34 H8         -0.9999   -0.6470    0.4054 H         1 <0>         0.0682
     35 H9         -0.0167   -0.2428   -1.8348 H         1 <0>         0.0713
     36 H10         1.5839   -0.0131   -1.0908 H         1 <0>         0.0583
     37 H11         1.4984   -2.3233   -0.1938 H         1 <0>         0.0868
     38 H12        -0.1022   -2.5529   -0.9378 H         1 <0>         0.1047
     39 H13         4.8195   -1.9046   -2.1585 H         1 <0>         0.0880
     40 H14         3.6179   -1.3963   -0.9477 H         1 <0>         0.0958
     41 H15         3.3145   -3.7975   -0.2974 H         1 <0>         0.0678
     42 H16         4.6025   -4.2419   -1.4428 H         1 <0>         0.0968
     43 H17         6.1936   -2.7871   -0.2179 H         1 <0>         0.0577
     44 H18         4.9057   -2.3427    0.9275 H         1 <0>         0.0528
     45 H19         5.4963   -4.0204    0.8595 H         1 <0>         0.0692
     46 H20         8.0446   -3.2252   -5.3073 H         1 <0>         0.1662
     47 H21         7.2667   -0.5088   -4.8018 H         1 <0>         0.4362
     48 H22         7.8605   -0.9514   -6.2737 H         1 <0>         0.4380
     49 H23         3.4125   -1.3231   -6.3083 H         1 <0>         0.4205
     50 H24         2.1277    1.3915   -5.7555 H         1 <0>         0.1042
     51 H25         3.5130    2.2639   -6.4541 H         1 <0>         0.1022
     52 H26         2.8768    0.8112   -7.2623 H         1 <0>         0.0892
     53 H27         6.4893   -0.0428   -6.1778 H         1 <0>         0.4251
@<TRIPOS>BOND
     1    1    2 1
     2    1   30 1
     3    1   31 1
     4    1   32 1
     5    2    3 1
     6    2   33 1
     7    2   34 1
     8    3    4 1
     9    3   35 1
    10    3   36 1
    11    4    5 1
    12    4   37 1
    13    4   38 1
    14    5    9 1
    15    5    6 2
    16    6    7 1
    17    7    8 2
    18    8    9 1
    19    8   13 1
    20    9   10 1
    21   10   11 1
    22   10   39 1
    23   10   40 1
    24   11   12 1
    25   11   41 1
    26   11   42 1
    27   12   43 1
    28   12   44 1
    29   12   45 1
    30   13   14 1
    31   13   21 1
    32   13   15 1
    33   15   16 1
    34   15   17 1
    35   15   26 1
    36   17   18 1
    37   17   19 1
    38   17   25 1
    39   19   20 2
    40   19   46 1
    41   20   21 1
    42   20   22 1
    43   22   23 2
    44   22   24 1
    45   25   47 1
    46   25   48 1
    47   25   53 1
    48   26   27 am
    49   26   49 1
    50   27   28 2
    51   27   29 1
    52   29   50 1
    53   29   51 1
    54   29   52 1
@<TRIPOS>MOLECULE
CHEMBL70936__1
   52    53     0     0     0
SMALL
USER_CHARGES

@<TRIPOS>ATOM
      1 C1          0.3449    1.5639   -0.0564 C.3       1 <0>        -0.1528
      2 C2          0.2791    0.0443   -0.2215 C.3       1 <0>        -0.1225
      3 C3         -1.1763   -0.4170   -0.1215 C.3       1 <0>        -0.1142
      4 C4         -1.2421   -1.9366   -0.2865 C.3       1 <0>        -0.0327
      5 C5         -2.6756   -2.3910   -0.1880 C.2       1 <0>         0.1765
      6 N1         -3.3044   -2.7364    0.9023 N.2       1 <0>        -0.2929
      7 N2         -4.5140   -3.0677    0.6180 N.2       1 <0>        -0.2836
      8 C6         -4.7118   -2.9488   -0.6666 C.2       1 <0>         0.1935
      9 N3         -3.5522   -2.5111   -1.2141 N.pl3     1 <0>        -0.4440
     10 C7         -3.2973   -2.2282   -2.6288 C.3       1 <0>         0.1074
     11 C8         -2.6846   -3.4626   -3.2934 C.3       1 <0>        -0.1402
     12 C9         -2.3252   -3.1352   -4.7441 C.3       1 <0>        -0.1423
     13 C10        -5.9939   -3.2390   -1.4035 C.3       1 <0>         0.1615
     14 H1         -6.6725   -3.7937   -0.7555 H         1 <0>         0.1027
     15 C11        -6.6520   -1.9215   -1.8350 C.3       1 <0>         0.1200
     16 H2         -6.0003   -1.3965   -2.5333 H         1 <0>         0.1131
     17 C12        -7.9831   -2.2513   -2.5187 C.3       1 <0>         0.1310
     18 H3         -8.7071   -2.5712   -1.7692 H         1 <0>         0.0411
     19 C13        -7.7731   -3.3569   -3.5174 C.2       1 <0>        -0.2516
     20 C14        -6.7031   -4.1400   -3.4921 C.2       1 <0>         0.0417
     21 O1         -5.7122   -4.0073   -2.5767 O.3       1 <0>        -0.2849
     22 C15        -6.5862   -5.2019   -4.5037 C.2       1 <0>         0.5370
     23 O2         -7.4648   -5.3467   -5.3429 O.co2     1 <0>        -0.6662
     24 O3         -5.6105   -5.9401   -4.5058 O.co2     1 <0>        -0.6645
     25 N4         -8.4882   -1.0570   -3.2090 N.3       1 <0>        -0.8272
     26 N5         -6.8943   -1.0820   -0.6591 N.am      1 <0>        -0.7206
     27 C16        -6.7776    0.2575   -0.7517 C.2       1 <0>         0.5074
     28 O4         -6.4721    0.7679   -1.8086 O.2       1 <0>        -0.5319
     29 C17        -7.0269    1.1210    0.4579 C.3       1 <0>        -0.1697
     30 H4          1.3817    1.8926   -0.1277 H         1 <0>         0.0541
     31 H5         -0.2421    2.0405   -0.8416 H         1 <0>         0.0536
     32 H6         -0.0581    1.8414    0.9176 H         1 <0>         0.0540
     33 H7          0.6821   -0.2332   -1.1955 H         1 <0>         0.0634
     34 H8          0.8660   -0.4322    0.5637 H         1 <0>         0.0652
     35 H9         -1.5793   -0.1395    0.8525 H         1 <0>         0.0703
     36 H10        -1.7632    0.0595   -0.9067 H         1 <0>         0.0610
     37 H11        -0.8391   -2.2141   -1.2606 H         1 <0>         0.0831
     38 H12        -0.6551   -2.4132    0.4986 H         1 <0>         0.0985
     39 H13        -4.2352   -1.9768   -3.1238 H         1 <0>         0.0986
     40 H14        -2.6060   -1.3896   -2.7127 H         1 <0>         0.0895
     41 H15        -1.7845   -3.7568   -2.7536 H         1 <0>         0.0609
     42 H16        -3.4042   -4.2810   -3.2731 H         1 <0>         0.0989
     43 H17        -3.2253   -2.8410   -5.2839 H         1 <0>         0.0616
     44 H18        -1.6056   -2.3168   -4.7644 H         1 <0>         0.0488
     45 H19        -1.8887   -4.0147   -5.2176 H         1 <0>         0.0642
     46 H20        -8.5196   -3.5185   -4.2809 H         1 <0>         0.1391
     47 H21        -9.3659   -1.2488   -3.6682 H         1 <0>         0.3432
     48 H22        -8.5761   -0.2804   -2.5708 H         1 <0>         0.3368
     49 H23        -7.1387   -1.4902    0.1862 H         1 <0>         0.4030
     50 H24        -7.2878    0.4898    1.3074 H         1 <0>         0.0754
     51 H25        -6.1262    1.6892    0.6905 H         1 <0>         0.0922
     52 H26        -7.8468    1.8086    0.2507 H         1 <0>         0.0939
@<TRIPOS>BOND
     1    1    2 1
     2    1   30 1
     3    1   31 1
     4    1   32 1
     5    2    3 1
     6    2   33 1
     7    2   34 1
     8    3    4 1
     9    3   35 1
    10    3   36 1
    11    4    5 1
    12    4   37 1
    13    4   38 1
    14    5    9 1
    15    5    6 2
    16    6    7 1
    17    7    8 2
    18    8    9 1
    19    8   13 1
    20    9   10 1
    21   10   11 1
    22   10   39 1
    23   10   40 1
    24   11   12 1
    25   11   41 1
    26   11   42 1
    27   12   43 1
    28   12   44 1
    29   12   45 1
    30   13   14 1
    31   13   21 1
    32   13   15 1
    33   15   16 1
    34   15   17 1
    35   15   26 1
    36   17   18 1
    37   17   19 1
    38   17   25 1
    39   19   20 2
    40   19   46 1
    41   20   21 1
    42   20   22 1
    43   22   23 2
    44   22   24 1
    45   25   47 1
    46   25   48 1
    47   26   27 am
    48   26   49 1
    49   27   28 2
    50   27   29 1
    51   29   50 1
    52   29   51 1
    53   29   52 1
@<TRIPOS>MOLECULE
CHEMBL349042
   58    59     0     0     0
SMALL
USER_CHARGES

@<TRIPOS>ATOM
      1 C1         -0.0418    1.4975    0.8467 C.3       1 <0>        -0.1540
      2 C2          0.0141   -0.0035    0.5554 C.3       1 <0>        -0.1497
      3 C3          0.5868   -0.2303   -0.8451 C.3       1 <0>         0.0967
      4 N1          0.5053   -1.6538   -1.1815 N.am      1 <0>        -0.6059
      5 C4         -0.6619   -2.1709   -1.9002 C.3       1 <0>         0.1259
      6 C5         -0.4092   -2.0918   -3.4071 C.3       1 <0>        -0.0977
      7 C6         -1.6099   -2.6238   -4.1464 C.ar      1 <0>        -0.0819
      8 C7         -1.6894   -3.9680   -4.4588 C.ar      1 <0>        -0.1114
      9 C8         -2.7907   -4.4560   -5.1369 C.ar      1 <0>        -0.1169
     10 C9         -3.8127   -3.5998   -5.5022 C.ar      1 <0>        -0.1224
     11 C10        -3.7336   -2.2558   -5.1890 C.ar      1 <0>        -0.1196
     12 C11        -2.6342   -1.7685   -4.5071 C.ar      1 <0>        -0.1170
     13 C12         1.5040   -2.4876   -0.8298 C.2       1 <0>         0.5275
     14 O1          1.4093   -3.6758   -1.0540 O.2       1 <0>        -0.4824
     15 C13         2.7384   -1.9436   -0.1579 C.3       1 <0>         0.0536
     16 H1          2.6791   -0.8565   -0.1053 H         1 <0>         0.1014
     17 C14         2.8549   -2.5242    1.2580 C.3       1 <0>         0.0968
     18 H2          2.9782   -3.6058    1.2027 H         1 <0>         0.1371
     19 C15         4.0794   -1.8985    1.9341 C.3       1 <0>         0.0880
     20 H3          3.8636   -0.8606    2.1879 H         1 <0>         0.1437
     21 C16         5.2527   -1.9514    0.9936 C.2       1 <0>        -0.3730
     22 C17         5.1072   -2.1498   -0.3096 C.2       1 <0>         0.1414
     23 O2          3.8997   -2.3277   -0.8993 O.3       1 <0>        -0.2585
     24 C18         6.3115   -2.1775   -1.1543 C.2       1 <0>         0.5226
     25 O3          7.4155   -2.0196   -0.6510 O.co2     1 <0>        -0.6483
     26 O4          6.2090   -2.3585   -2.3600 O.co2     1 <0>        -0.6337
     27 N2          4.3984   -2.6458    3.1579 N.4       1 <0>        -0.6263
     28 N3          1.6484   -2.2031    2.0244 N.am      1 <0>        -0.7476
     29 C19         0.6374   -3.0917    2.0932 C.2       1 <0>         0.5050
     30 O5          0.7638   -4.1933    1.6020 O.2       1 <0>        -0.4882
     31 C20        -0.6502   -2.7164    2.7806 C.3       1 <0>        -0.1423
     32 C21        -1.5741   -3.9348    2.8334 C.3       1 <0>        -0.1411
     33 H4          0.9709    1.8991    0.8799 H         1 <0>         0.0576
     34 H5         -0.6061    1.9993    0.0607 H         1 <0>         0.0618
     35 H6         -0.5301    1.6633    1.8070 H         1 <0>         0.0605
     36 H7          0.6512   -0.4931    1.2920 H         1 <0>         0.0609
     37 H8         -0.9910   -0.4217    0.6090 H         1 <0>         0.0708
     38 H9          0.0136    0.3478   -1.5700 H         1 <0>         0.0908
     39 H10         1.6287    0.0893   -0.8678 H         1 <0>         0.0812
     40 H11        -0.8339   -3.2087   -1.6146 H         1 <0>         0.0885
     41 H12        -1.5383   -1.5743   -1.6469 H         1 <0>         0.0803
     42 H13        -0.2372   -1.0540   -3.6926 H         1 <0>         0.0750
     43 H14         0.4671   -2.6884   -3.6604 H         1 <0>         0.0803
     44 H15        -0.8910   -4.6369   -4.1734 H         1 <0>         0.1234
     45 H16        -2.8526   -5.5061   -5.3816 H         1 <0>         0.1226
     46 H17        -4.6728   -3.9810   -6.0327 H         1 <0>         0.1214
     47 H18        -4.5319   -1.5868   -5.4747 H         1 <0>         0.1216
     48 H19        -2.5741   -0.7191   -4.2591 H         1 <0>         0.1199
     49 H20         6.2477   -1.8232    1.3936 H         1 <0>         0.1658
     50 H21         4.5982   -3.6065    2.9229 H         1 <0>         0.4373
     51 H22         5.2047   -2.2337    3.6030 H         1 <0>         0.4399
     52 H23         1.5772   -1.3510    2.4824 H         1 <0>         0.4056
     53 H24        -0.4357   -2.3788    3.7946 H         1 <0>         0.0934
     54 H25        -1.1377   -1.9145    2.2262 H         1 <0>         0.0991
     55 H26        -1.7885   -4.2724    1.8194 H         1 <0>         0.0660
     56 H27        -1.0865   -4.7367    3.3879 H         1 <0>         0.0616
     57 H28        -2.5053   -3.6633    3.3306 H         1 <0>         0.0665
     58 H29         3.6114   -2.6105    3.7883 H         1 <0>         0.4262
@<TRIPOS>BOND
     1    1    2 1
     2    1   33 1
     3    1   34 1
     4    1   35 1
     5    2    3 1
     6    2   36 1
     7    2   37 1
     8    3    4 1
     9    3   38 1
    10    3   39 1
    11    4    5 1
    12    4   13 am
    13    5    6 1
    14    5   40 1
    15    5   41 1
    16    6    7 1
    17    6   42 1
    18    6   43 1
    19    7   12 ar
    20    7    8 ar
    21    8    9 ar
    22    8   44 1
    23    9   10 ar
    24    9   45 1
    25   10   11 ar
    26   10   46 1
    27   11   12 ar
    28   11   47 1
    29   12   48 1
    30   13   14 2
    31   13   15 1
    32   15   16 1
    33   15   23 1
    34   15   17 1
    35   17   18 1
    36   17   19 1
    37   17   28 1
    38   19   20 1
    39   19   21 1
    40   19   27 1
    41   21   22 2
    42   21   49 1
    43   22   23 1
    44   22   24 1
    45   24   25 2
    46   24   26 1
    47   27   50 1
    48   27   51 1
    49   27   58 1
    50   28   29 am
    51   28   52 1
    52   29   30 2
    53   29   31 1
    54   31   32 1
    55   31   53 1
    56   31   54 1
    57   32   55 1
    58   32   56 1
    59   32   57 1
@<TRIPOS>MOLECULE
CHEMBL349042__1
   57    58     0     0     0
SMALL
USER_CHARGES

@<TRIPOS>ATOM
      1 C1         -0.8754    1.8782    0.2963 C.3       1 <0>        -0.1326
      2 C2         -0.7015    0.3637    0.4266 C.3       1 <0>        -0.1322
      3 C3         -2.0450   -0.3266    0.1829 C.3       1 <0>         0.1079
      4 N1         -1.9074   -1.7640    0.4305 N.am      1 <0>        -0.5937
      5 C4         -2.0759   -2.2931    1.7862 C.3       1 <0>         0.1209
      6 C5         -3.5451   -2.6545    2.0137 C.3       1 <0>        -0.0947
      7 C6         -3.7185   -3.1988    3.4082 C.ar      1 <0>        -0.0750
      8 C7         -3.5831   -4.5543    3.6428 C.ar      1 <0>        -0.1131
      9 C8         -3.7421   -5.0536    4.9220 C.ar      1 <0>        -0.1194
     10 C9         -4.0360   -4.1973    5.9666 C.ar      1 <0>        -0.1267
     11 C10        -4.1705   -2.8417    5.7322 C.ar      1 <0>        -0.1193
     12 C11        -4.0073   -2.3418    4.4537 C.ar      1 <0>        -0.1156
     13 C12        -1.6258   -2.5995   -0.5889 C.2       1 <0>         0.5421
     14 O1         -1.4511   -3.7804   -0.3745 O.2       1 <0>        -0.5400
     15 C13        -1.5282   -2.0665   -1.9950 C.3       1 <0>         0.0524
     16 H1         -0.9612   -2.7626   -2.6131 H         1 <0>         0.0995
     17 C14        -2.9360   -1.8854   -2.5784 C.3       1 <0>         0.1256
     18 H2         -3.4816   -1.1416   -1.9978 H         1 <0>         0.1156
     19 C15        -2.7972   -1.4090   -4.0282 C.3       1 <0>         0.1305
     20 H3         -2.4548   -2.2354   -4.6510 H         1 <0>         0.0368
     21 C16        -1.7991   -0.2850   -4.0929 C.2       1 <0>        -0.2509
     22 C17        -0.9326   -0.0505   -3.1166 C.2       1 <0>         0.0343
     23 O2         -0.8780   -0.7925   -1.9835 O.3       1 <0>        -0.2720
     24 C18         0.0131    1.0660   -3.2704 C.2       1 <0>         0.5363
     25 O3         -0.0116    1.7537   -4.2822 O.co2     1 <0>        -0.6695
     26 O4          0.8243    1.3069   -2.3867 O.co2     1 <0>        -0.6581
     27 N2         -4.0999   -0.9359   -4.5151 N.3       1 <0>        -0.8262
     28 N3         -3.6532   -3.1624   -2.5437 N.am      1 <0>        -0.7273
     29 C19        -4.9951   -3.1785   -2.4189 C.2       1 <0>         0.5070
     30 O5         -5.6174   -2.1376   -2.4273 O.2       1 <0>        -0.5180
     31 C20        -5.7222   -4.4899   -2.2691 C.3       1 <0>        -0.1441
     32 C21        -7.2316   -4.2399   -2.2758 C.3       1 <0>        -0.1353
     33 H4          0.0614    2.3746    0.5498 H         1 <0>         0.0542
     34 H5         -1.1518    2.1254   -0.7287 H         1 <0>         0.0619
     35 H6         -1.6595    2.2137    0.9751 H         1 <0>         0.0351
     36 H7          0.0241    0.0167   -0.3091 H         1 <0>         0.1004
     37 H8         -0.3462    0.1237    1.4287 H         1 <0>         0.0450
     38 H9         -2.7942    0.0881    0.8571 H         1 <0>         0.0650
     39 H10        -2.3552   -0.1638   -0.8493 H         1 <0>         0.0939
     40 H11        -1.4597   -3.1840    1.9077 H         1 <0>         0.0849
     41 H12        -1.7708   -1.5386    2.5112 H         1 <0>         0.0800
     42 H13        -4.1614   -1.7636    1.8921 H         1 <0>         0.0744
     43 H14        -3.8502   -3.4090    1.2886 H         1 <0>         0.0737
     44 H15        -3.3534   -5.2233    2.8267 H         1 <0>         0.1221
     45 H16        -3.6370   -6.1128    5.1052 H         1 <0>         0.1201
     46 H17        -4.1609   -4.5875    6.9659 H         1 <0>         0.1189
     47 H18        -4.4004   -2.1727    6.5482 H         1 <0>         0.1205
     48 H19        -4.1086   -1.2822    4.2711 H         1 <0>         0.1219
     49 H20        -1.7876    0.3526   -4.9645 H         1 <0>         0.1367
     50 H21        -4.0347   -0.6160   -5.4698 H         1 <0>         0.3400
     51 H22        -4.8033   -1.6532   -4.4213 H         1 <0>         0.3398
     52 H23        -3.1623   -3.9963   -2.6105 H         1 <0>         0.4023
     53 H24        -5.4592   -5.1479   -3.0973 H         1 <0>         0.0889
     54 H25        -5.4358   -4.9587   -1.3276 H         1 <0>         0.0930
     55 H26        -7.4946   -3.5819   -1.4475 H         1 <0>         0.0627
     56 H27        -7.5180   -3.7711   -3.2172 H         1 <0>         0.0606
     57 H28        -7.7575   -5.1884   -2.1674 H         1 <0>         0.0586
@<TRIPOS>BOND
     1    1    2 1
     2    1   33 1
     3    1   34 1
     4    1   35 1
     5    2    3 1
     6    2   36 1
     7    2   37 1
     8    3    4 1
     9    3   38 1
    10    3   39 1
    11    4    5 1
    12    4   13 am
    13    5    6 1
    14    5   40 1
    15    5   41 1
    16    6    7 1
    17    6   42 1
    18    6   43 1
    19    7   12 ar
    20    7    8 ar
    21    8    9 ar
    22    8   44 1
    23    9   10 ar
    24    9   45 1
    25   10   11 ar
    26   10   46 1
    27   11   12 ar
    28   11   47 1
    29   12   48 1
    30   13   14 2
    31   13   15 1
    32   15   16 1
    33   15   23 1
    34   15   17 1
    35   17   18 1
    36   17   19 1
    37   17   28 1
    38   19   20 1
    39   19   21 1
    40   19   27 1
    41   21   22 2
    42   21   49 1
    43   22   23 1
    44   22   24 1
    45   24   25 2
    46   24   26 1
    47   27   50 1
    48   27   51 1
    49   28   29 am
    50   28   52 1
    51   29   30 2
    52   29   31 1
    53   31   32 1
    54   31   53 1
    55   31   54 1
    56   32   55 1
    57   32   56 1
    58   32   57 1
@<TRIPOS>MOLECULE
CHEMBL298659
   39    40     0     0     0
SMALL
USER_CHARGES

@<TRIPOS>ATOM
      1 C1          0.3214    1.1321   -0.6320 C.3       1 <0>        -0.1753
      2 C2          0.2344   -0.3520   -0.3853 C.2       1 <0>         0.5100
      3 O1          1.2477   -1.0051   -0.2527 O.2       1 <0>        -0.4942
      4 N1         -0.9695   -0.9535   -0.3119 N.am      1 <0>        -0.7555
      5 C3         -1.0541   -2.3962   -0.0721 C.3       1 <0>         0.1311
      6 H1         -0.2226   -2.8989   -0.5661 H         1 <0>         0.1291
      7 C4         -2.3810   -2.9331   -0.6225 C.3       1 <0>         0.0233
      8 H2         -3.2079   -2.5446   -0.0280 H         1 <0>         0.1525
      9 C5         -2.3599   -4.4606   -0.5374 C.3       1 <0>        -0.0840
     10 C6         -1.9472   -4.8957    0.8386 C.2       1 <0>        -0.1480
     11 C7         -1.3457   -4.1069    1.7066 C.2       1 <0>        -0.1706
     12 C8         -1.0004   -2.6712    1.4321 C.3       1 <0>         0.1178
     13 H3         -1.7152   -2.0262    1.9431 H         1 <0>         0.0874
     14 O2          0.3148   -2.3946    1.9177 O.3       1 <0>        -0.2824
     15 C9          0.4338   -2.0870    3.2360 C.ar      1 <0>         0.1278
     16 C10         1.6610   -1.6939    3.7498 C.ar      1 <0>        -0.1478
     17 C11         1.7792   -1.3813    5.0902 C.ar      1 <0>        -0.0816
     18 C12         0.6758   -1.4603    5.9197 C.ar      1 <0>        -0.1562
     19 C13        -0.5483   -1.8522    5.4101 C.ar      1 <0>        -0.0791
     20 C14        -0.6731   -2.1600    4.0692 C.ar      1 <0>        -0.2066
     21 C15        -2.2298   -6.2780    1.2406 C.2       1 <0>         0.5106
     22 O3         -1.9081   -6.6692    2.3546 O.co2     1 <0>        -0.6679
     23 O4         -2.7872   -7.0399    0.4619 O.co2     1 <0>        -0.6845
     24 N2         -2.5400   -2.5150   -2.0217 N.4       1 <0>        -0.6294
     25 H4          1.3681    1.4352   -0.6589 H         1 <0>         0.0991
     26 H5         -0.1504    1.3702   -1.5853 H         1 <0>         0.0886
     27 H6         -0.1904    1.6643    0.1697 H         1 <0>         0.0920
     28 H7         -1.7799   -0.4311   -0.4179 H         1 <0>         0.3974
     29 H8         -3.3549   -4.8485   -0.7557 H         1 <0>         0.1146
     30 H9         -1.6528   -4.8535   -1.2679 H         1 <0>         0.0991
     31 H10        -1.0827   -4.5172    2.6704 H         1 <0>         0.1408
     32 H11         2.5234   -1.6327    3.1025 H         1 <0>         0.1296
     33 H12         2.7344   -1.0752    5.4907 H         1 <0>         0.1293
     34 H13         0.7703   -1.2158    6.9674 H         1 <0>         0.1243
     35 H14        -1.4087   -1.9135    6.0601 H         1 <0>         0.1255
     36 H15        -1.6305   -2.4618    3.6707 H         1 <0>         0.1277
     37 H16        -1.7769   -2.8812   -2.5710 H         1 <0>         0.4363
     38 H17        -3.4136   -2.8694   -2.3814 H         1 <0>         0.4417
     39 H18        -2.5389   -1.5074   -2.0739 H         1 <0>         0.4274
@<TRIPOS>BOND
     1    1    2 1
     2    1   25 1
     3    1   26 1
     4    1   27 1
     5    2    3 2
     6    2    4 am
     7    4    5 1
     8    4   28 1
     9    5    6 1
    10    5   12 1
    11    5    7 1
    12    7    8 1
    13    7    9 1
    14    7   24 1
    15    9   10 1
    16    9   29 1
    17    9   30 1
    18   10   11 2
    19   10   21 1
    20   11   12 1
    21   11   31 1
    22   12   13 1
    23   12   14 1
    24   14   15 1
    25   15   20 ar
    26   15   16 ar
    27   16   17 ar
    28   16   32 1
    29   17   18 ar
    30   17   33 1
    31   18   19 ar
    32   18   34 1
    33   19   20 ar
    34   19   35 1
    35   20   36 1
    36   21   22 2
    37   21   23 1
    38   24   37 1
    39   24   38 1
    40   24   39 1
@<TRIPOS>MOLECULE
CHEMBL195871
   46    47     0     0     0
SMALL
USER_CHARGES

@<TRIPOS>ATOM
      1 C1         -0.0187    1.5258    0.0104 C.3       1 <0>        -0.1512
      2 C2          0.0021   -0.0041    0.0020 C.3       1 <0>        -0.0888
      3 C3          0.7421   -0.5109    1.2415 C.3       1 <0>        -0.1469
      4 C4         -1.4333   -0.5336    0.0129 C.3       1 <0>        -0.1416
      5 C5         -1.4157   -2.0577   -0.1212 C.3       1 <0>         0.1309
      6 H1         -0.7891   -2.4841    0.6622 H         1 <0>         0.1132
      7 C6         -2.8406   -2.5981    0.0146 C.3       1 <0>         0.0224
      8 H2         -3.4765   -2.1664   -0.7583 H         1 <0>         0.1370
      9 C7         -2.8334   -4.1331   -0.1088 C.3       1 <0>        -0.0104
     10 H3         -1.8192   -4.4942   -0.2792 H         1 <0>         0.1203
     11 C8         -3.3662   -4.6497    1.2474 C.3       1 <0>        -0.1126
     12 C9         -3.0957   -3.4596    2.2019 C.3       1 <0>        -0.0440
     13 H4         -2.0567   -3.4591    2.5314 H         1 <0>         0.1372
     14 N1         -3.3790   -2.2687    1.3522 N.4       1 <0>        -0.4907
     15 C10        -4.0272   -3.5048    3.3856 C.2       1 <0>         0.4968
     16 O1         -3.8797   -4.3568    4.2452 O.co2     1 <0>        -0.6328
     17 O2         -4.9284   -2.6895    3.4837 O.co2     1 <0>        -0.6718
     18 C11        -3.7393   -4.5719   -1.2304 C.2       1 <0>        -0.0108
     19 C12        -5.0691   -4.7662   -1.1437 C.2       1 <0>        -0.0364
     20 N2         -5.4940   -5.1567   -2.3848 N.pl3     1 <0>        -0.5632
     21 H5         -6.4049   -5.3713   -2.6402 H         1 <0>         0.4267
     22 C13        -4.4084   -5.1875   -3.1874 C.2       1 <0>         0.1960
     23 N3         -3.3634   -4.8317   -2.4914 N.2       1 <0>        -0.4835
     24 N4         -0.8765   -2.4263   -1.4325 N.am      1 <0>        -0.7177
     25 C14         0.4560   -2.5245   -1.6099 C.2       1 <0>         0.5160
     26 O3          1.2086   -2.3077   -0.6839 O.2       1 <0>        -0.5262
     27 C15         1.0106   -2.9037   -2.9588 C.3       1 <0>        -0.1717
     28 H6          1.0039    1.9031    0.0027 H         1 <0>         0.0581
     29 H7         -0.5459    1.8868   -0.8726 H         1 <0>         0.0517
     30 H8         -0.5289    1.8773    0.9072 H         1 <0>         0.0542
     31 H9          0.5123   -0.3556   -0.8948 H         1 <0>         0.0814
     32 H10         0.7568   -1.6008    1.2356 H         1 <0>         0.0721
     33 H11         1.7647   -0.1336    1.2338 H         1 <0>         0.0552
     34 H12         0.2319   -0.1594    2.1383 H         1 <0>         0.0438
     35 H13        -1.9156   -0.2570    0.9504 H         1 <0>         0.0669
     36 H14        -1.9862   -0.1019   -0.8214 H         1 <0>         0.0792
     37 H15        -4.4338   -4.8609    1.1872 H         1 <0>         0.0948
     38 H16        -2.8144   -5.5336    1.5671 H         1 <0>         0.1157
     39 H17        -2.9136   -1.4542    1.7237 H         1 <0>         0.4210
     40 H18        -5.6823   -4.6387   -0.2638 H         1 <0>         0.1801
     41 H19        -4.4060   -5.4578   -4.2330 H         1 <0>         0.2123
     42 H20        -1.4784   -2.5997   -2.1731 H         1 <0>         0.4100
     43 H21         0.1896   -3.0580   -3.6590 H         1 <0>         0.0784
     44 H22         1.6547   -2.1041   -3.3247 H         1 <0>         0.0961
     45 H23         1.5887   -3.8233   -2.8685 H         1 <0>         0.0986
     46 H24        -4.3736   -2.1079    1.2969 H         1 <0>         0.4344
@<TRIPOS>BOND
     1    1    2 1
     2    1   28 1
     3    1   29 1
     4    1   30 1
     5    2    3 1
     6    2    4 1
     7    2   31 1
     8    3   32 1
     9    3   33 1
    10    3   34 1
    11    4    5 1
    12    4   35 1
    13    4   36 1
    14    5    6 1
    15    5    7 1
    16    5   24 1
    17    7    8 1
    18    7   14 1
    19    7    9 1
    20    9   10 1
    21    9   11 1
    22    9   18 1
    23   11   12 1
    24   11   37 1
    25   11   38 1
    26   12   13 1
    27   12   14 1
    28   12   15 1
    29   14   39 1
    30   14   46 1
    31   15   16 2
    32   15   17 1
    33   18   23 1
    34   18   19 2
    35   19   20 1
    36   19   40 1
    37   20   21 1
    38   20   22 1
    39   22   23 2
    40   22   41 1
    41   24   25 am
    42   24   42 1
    43   25   26 2
    44   25   27 1
    45   27   43 1
    46   27   44 1
    47   27   45 1
@<TRIPOS>MOLECULE
CHEMBL195871__1
   46    47     0     0     0
SMALL
USER_CHARGES

@<TRIPOS>ATOM
      1 C1         -0.0187    1.5258    0.0104 C.3       1 <0>        -0.1518
      2 C2          0.0021   -0.0041    0.0020 C.3       1 <0>        -0.0885
      3 C3          0.7421   -0.5109    1.2415 C.3       1 <0>        -0.1475
      4 C4         -1.4333   -0.5336    0.0129 C.3       1 <0>        -0.1425
      5 C5         -1.4157   -2.0577   -0.1212 C.3       1 <0>         0.1301
      6 H1         -0.7891   -2.4841    0.6622 H         1 <0>         0.1149
      7 C6         -2.8406   -2.5981    0.0146 C.3       1 <0>         0.0218
      8 H2         -3.4765   -2.1664   -0.7583 H         1 <0>         0.1451
      9 C7         -2.8334   -4.1331   -0.1088 C.3       1 <0>        -0.0219
     10 H3         -1.8192   -4.4942   -0.2792 H         1 <0>         0.1137
     11 C8         -3.3662   -4.6497    1.2474 C.3       1 <0>        -0.1109
     12 C9         -3.0957   -3.4596    2.2019 C.3       1 <0>        -0.0431
     13 H4         -2.0567   -3.4591    2.5314 H         1 <0>         0.1370
     14 N1         -3.3790   -2.2687    1.3522 N.4       1 <0>        -0.4899
     15 C10        -4.0272   -3.5048    3.3856 C.2       1 <0>         0.4966
     16 O1         -3.8797   -4.3568    4.2452 O.co2     1 <0>        -0.6327
     17 O2         -4.9284   -2.6895    3.4837 O.co2     1 <0>        -0.6680
     18 C11        -3.7393   -4.5719   -1.2304 C.2       1 <0>        -0.0359
     19 C12        -4.8982   -3.9935   -1.5993 C.2       1 <0>        -0.0119
     20 N2         -5.3949   -4.6841   -2.6363 N.2       1 <0>        -0.4850
     21 H5         -2.7865   -6.2429   -2.0612 H         1 <0>         0.4231
     22 C13        -4.5878   -5.6683   -2.9241 C.2       1 <0>         0.2035
     23 N3         -3.5393   -5.6313   -2.0738 N.pl3     1 <0>        -0.5596
     24 N4         -0.8765   -2.4263   -1.4325 N.am      1 <0>        -0.7228
     25 C14         0.4560   -2.5245   -1.6099 C.2       1 <0>         0.5135
     26 O3          1.2086   -2.3077   -0.6839 O.2       1 <0>        -0.5192
     27 C15         1.0106   -2.9037   -2.9588 C.3       1 <0>        -0.1729
     28 H6          1.0039    1.9031    0.0027 H         1 <0>         0.0585
     29 H7         -0.5459    1.8868   -0.8726 H         1 <0>         0.0527
     30 H8         -0.5289    1.8773    0.9072 H         1 <0>         0.0553
     31 H9          0.5123   -0.3556   -0.8948 H         1 <0>         0.0801
     32 H10         0.7568   -1.6008    1.2356 H         1 <0>         0.0705
     33 H11         1.7647   -0.1336    1.2338 H         1 <0>         0.0558
     34 H12         0.2319   -0.1594    2.1383 H         1 <0>         0.0452
     35 H13        -1.9156   -0.2570    0.9504 H         1 <0>         0.0694
     36 H14        -1.9862   -0.1019   -0.8214 H         1 <0>         0.0822
     37 H15        -4.4338   -4.8609    1.1872 H         1 <0>         0.1003
     38 H16        -2.8144   -5.5336    1.5671 H         1 <0>         0.1137
     39 H17        -2.9136   -1.4542    1.7237 H         1 <0>         0.4228
     40 H18        -5.3487   -3.1258   -1.1405 H         1 <0>         0.1664
     41 H19        -4.7326   -6.3908   -3.7137 H         1 <0>         0.2139
     42 H20        -1.4784   -2.5997   -2.1731 H         1 <0>         0.4057
     43 H21         0.1896   -3.0580   -3.6590 H         1 <0>         0.0758
     44 H22         1.6547   -2.1041   -3.3247 H         1 <0>         0.0998
     45 H23         1.5887   -3.8233   -2.8685 H         1 <0>         0.0990
     46 H24        -4.3736   -2.1079    1.2969 H         1 <0>         0.4375
@<TRIPOS>BOND
     1    1    2 1
     2    1   28 1
     3    1   29 1
     4    1   30 1
     5    2    3 1
     6    2    4 1
     7    2   31 1
     8    3   32 1
     9    3   33 1
    10    3   34 1
    11    4    5 1
    12    4   35 1
    13    4   36 1
    14    5    6 1
    15    5    7 1
    16    5   24 1
    17    7    8 1
    18    7   14 1
    19    7    9 1
    20    9   10 1
    21    9   11 1
    22    9   18 1
    23   11   12 1
    24   11   37 1
    25   11   38 1
    26   12   13 1
    27   12   14 1
    28   12   15 1
    29   14   39 1
    30   14   46 1
    31   15   16 2
    32   15   17 1
    33   18   19 2
    34   18   23 1
    35   19   20 1
    36   19   40 1
    37   20   22 2
    38   21   23 1
    39   22   41 1
    40   22   23 1
    41   24   25 am
    42   24   42 1
    43   25   26 2
    44   25   27 1
    45   27   43 1
    46   27   44 1
    47   27   45 1
@<TRIPOS>MOLECULE
CHEMBL195871__2
   47    48     0     0     0
SMALL
USER_CHARGES

@<TRIPOS>ATOM
      1 C1         -0.0187    1.5258    0.0104 C.3       1 <0>        -0.1534
      2 C2          0.0021   -0.0041    0.0020 C.3       1 <0>        -0.0882
      3 C3          0.7421   -0.5109    1.2415 C.3       1 <0>        -0.1597
      4 C4         -1.4333   -0.5336    0.0129 C.3       1 <0>        -0.1518
      5 C5         -1.4157   -2.0577   -0.1212 C.3       1 <0>         0.1342
      6 H1         -0.7891   -2.4841    0.6622 H         1 <0>         0.1205
      7 C6         -2.8406   -2.5981    0.0146 C.3       1 <0>         0.0074
      8 H2         -3.4765   -2.1664   -0.7583 H         1 <0>         0.1566
      9 C7         -2.8334   -4.1331   -0.1088 C.3       1 <0>        -0.0391
     10 H3         -1.8192   -4.4942   -0.2792 H         1 <0>         0.1341
     11 C8         -3.3662   -4.6497    1.2474 C.3       1 <0>        -0.1133
     12 C9         -3.0957   -3.4596    2.2019 C.3       1 <0>        -0.0445
     13 H4         -2.0567   -3.4591    2.5314 H         1 <0>         0.1435
     14 N1         -3.3790   -2.2687    1.3522 N.4       1 <0>        -0.4924
     15 C10        -4.0272   -3.5048    3.3856 C.2       1 <0>         0.4925
     16 O1         -3.8797   -4.3568    4.2452 O.co2     1 <0>        -0.6232
     17 O2         -4.9284   -2.6895    3.4837 O.co2     1 <0>        -0.6619
     18 C11        -3.7393   -4.5719   -1.2304 C.2       1 <0>         0.0261
     19 C12        -4.8939   -3.9807   -1.5925 C.2       1 <0>         0.0452
     20 N2         -5.3906   -4.6956   -2.6488 N.pl3     1 <0>        -0.5018
     21 H5         -6.2131   -4.5149   -3.1302 H         1 <0>         0.4724
     22 C13        -4.5216   -5.6994   -2.8957 C.cat     1 <0>         0.3208
     23 N3         -3.5340   -5.6162   -2.0467 N.pl3     1 <0>        -0.4702
     24 N4         -0.8765   -2.4263   -1.4325 N.am      1 <0>        -0.7215
     25 C14        -1.4919   -2.0077   -2.5561 C.2       1 <0>         0.5155
     26 O3         -2.4921   -1.3258   -2.4816 O.2       1 <0>        -0.5346
     27 C15        -0.9373   -2.3869   -3.9051 C.3       1 <0>        -0.1789
     28 H6          1.0039    1.9031    0.0027 H         1 <0>         0.0633
     29 H7         -0.5459    1.8868   -0.8726 H         1 <0>         0.0571
     30 H8         -0.5289    1.8773    0.9072 H         1 <0>         0.0597
     31 H9          0.5123   -0.3556   -0.8948 H         1 <0>         0.0743
     32 H10         1.7647   -0.1336    1.2338 H         1 <0>         0.0663
     33 H11         0.2319   -0.1594    2.1383 H         1 <0>         0.0614
     34 H12         0.7568   -1.6008    1.2356 H         1 <0>         0.0514
     35 H13        -1.9156   -0.2570    0.9504 H         1 <0>         0.0722
     36 H14        -1.9862   -0.1019   -0.8214 H         1 <0>         0.1045
     37 H15        -4.4338   -4.8609    1.1872 H         1 <0>         0.1019
     38 H16        -2.8144   -5.5336    1.5671 H         1 <0>         0.1261
     39 H17        -2.9136   -1.4542    1.7237 H         1 <0>         0.4295
     40 H18        -5.3419   -3.1101   -1.1367 H         1 <0>         0.2226
     41 H19        -4.6248   -6.4452   -3.6700 H         1 <0>         0.2725
     42 H20        -0.0765   -2.9716   -1.4921 H         1 <0>         0.4157
     43 H21        -1.3824   -3.3275   -4.2296 H         1 <0>         0.0903
     44 H22        -1.1725   -1.6053   -4.6274 H         1 <0>         0.1034
     45 H23         0.1443   -2.5022   -3.8338 H         1 <0>         0.0895
     46 H24        -4.3736   -2.1079    1.2969 H         1 <0>         0.4366
     47 H25        -2.7726   -6.2160   -2.0105 H         1 <0>         0.4672
@<TRIPOS>BOND
     1    1    2 1
     2    1   28 1
     3    1   29 1
     4    1   30 1
     5    2    3 1
     6    2    4 1
     7    2   31 1
     8    3   32 1
     9    3   33 1
    10    3   34 1
    11    4    5 1
    12    4   35 1
    13    4   36 1
    14    5    6 1
    15    5    7 1
    16    5   24 1
    17    7    8 1
    18    7   14 1
    19    7    9 1
    20    9   10 1
    21    9   11 1
    22    9   18 1
    23   11   12 1
    24   11   37 1
    25   11   38 1
    26   12   13 1
    27   12   14 1
    28   12   15 1
    29   14   39 1
    30   14   46 1
    31   15   16 2
    32   15   17 1
    33   18   23 1
    34   18   19 2
    35   19   20 1
    36   19   40 1
    37   20   21 1
    38   20   22 1
    39   22   23 2
    40   22   41 1
    41   23   47 1
    42   24   25 am
    43   24   42 1
    44   25   26 2
    45   25   27 1
    46   27   43 1
    47   27   44 1
    48   27   45 1
@<TRIPOS>MOLECULE
CHEMBL79499
   54    55     0     0     0
SMALL
USER_CHARGES

@<TRIPOS>ATOM
      1 C1         -0.0187    1.5258    0.0104 C.3       1 <0>        -0.1680
      2 C2          0.0021   -0.0041    0.0020 C.3       1 <0>        -0.1455
      3 C3          0.7182   -0.4975   -1.2568 C.3       1 <0>         0.0883
      4 H1          0.2444   -0.0644   -2.1377 H         1 <0>         0.0646
      5 C4          0.6303   -2.0233   -1.3286 C.3       1 <0>        -0.1054
      6 C5          1.2362   -2.5075   -2.6474 C.3       1 <0>        -0.0811
      7 C6          1.1497   -4.0104   -2.7181 C.ar      1 <0>        -0.0761
      8 C7          2.1801   -4.7862   -2.2209 C.ar      1 <0>        -0.1155
      9 C8          2.1007   -6.1647   -2.2858 C.ar      1 <0>        -0.1192
     10 C9          0.9907   -6.7675   -2.8475 C.ar      1 <0>        -0.1277
     11 C10        -0.0401   -5.9916   -3.3439 C.ar      1 <0>        -0.1191
     12 C11         0.0373   -4.6132   -3.2751 C.ar      1 <0>        -0.1190
     13 O1          2.0903   -0.1010   -1.2105 O.3       1 <0>        -0.3384
     14 C12         2.3469    1.1751   -1.8003 C.3       1 <0>         0.1108
     15 H2          1.4661    1.8077   -1.6900 H         1 <0>         0.0843
     16 C13         2.6520    0.9968   -3.2591 C.2       1 <0>        -0.1596
     17 C14         3.6183    1.6352   -3.8886 C.2       1 <0>        -0.1608
     18 C15         4.5410    2.6153   -3.2247 C.3       1 <0>        -0.0812
     19 C16         3.9504    3.0735   -1.8897 C.3       1 <0>         0.0201
     20 H3          3.0793    3.7029   -2.0714 H         1 <0>         0.1499
     21 C17         3.5344    1.8312   -1.0930 C.3       1 <0>         0.1300
     22 H4          4.3664    1.1286   -1.0460 H         1 <0>         0.1264
     23 N1          3.1427    2.2274    0.2619 N.am      1 <0>        -0.7541
     24 C18         3.2043    1.3344    1.2695 C.2       1 <0>         0.5116
     25 O2          3.5840    0.2028    1.0545 O.2       1 <0>        -0.4907
     26 C19         2.8013    1.7419    2.6632 C.3       1 <0>        -0.1738
     27 N2          4.9592    3.8321   -1.1382 N.4       1 <0>        -0.6304
     28 C20         3.8020    1.3730   -5.3203 C.2       1 <0>         0.5108
     29 O3          3.0687    0.5805   -5.8963 O.co2     1 <0>        -0.6708
     30 O4          4.6886    1.9469   -5.9386 O.co2     1 <0>        -0.6879
     31 H5          1.0039    1.9031    0.0027 H         1 <0>         0.0622
     32 H6         -0.5459    1.8868   -0.8726 H         1 <0>         0.0542
     33 H7         -0.5289    1.8773    0.9072 H         1 <0>         0.0553
     34 H8          0.5293   -0.3651    0.8851 H         1 <0>         0.0696
     35 H9         -1.0205   -0.3814    0.0098 H         1 <0>         0.0723
     36 H10         1.1806   -2.4586   -0.4944 H         1 <0>         0.0727
     37 H11        -0.4142   -2.3300   -1.2744 H         1 <0>         0.0752
     38 H12         0.6860   -2.0722   -3.4816 H         1 <0>         0.0723
     39 H13         2.2808   -2.2008   -2.7016 H         1 <0>         0.0822
     40 H14         3.0473   -4.3153   -1.7821 H         1 <0>         0.1204
     41 H15         2.9060   -6.7709   -1.8979 H         1 <0>         0.1198
     42 H16         0.9290   -7.8445   -2.8988 H         1 <0>         0.1193
     43 H17        -0.9072   -6.4625   -3.7830 H         1 <0>         0.1202
     44 H18        -0.7697   -4.0071   -3.6596 H         1 <0>         0.1201
     45 H19         2.0453    0.3056   -3.8253 H         1 <0>         0.1357
     46 H20         5.5064    2.1407   -3.0489 H         1 <0>         0.0956
     47 H21         4.6785    3.4795   -3.8746 H         1 <0>         0.1105
     48 H22         2.8390    3.1324    0.4338 H         1 <0>         0.3947
     49 H23         2.4913    2.7869    2.6609 H         1 <0>         0.0744
     50 H24         1.9730    1.1180    2.9991 H         1 <0>         0.1001
     51 H25         3.6481    1.6157    3.3378 H         1 <0>         0.0980
     52 H26         5.2414    4.6391   -1.6742 H         1 <0>         0.4404
     53 H27         4.5673    4.1330   -0.2584 H         1 <0>         0.4265
     54 H28         5.7618    3.2454   -0.9657 H         1 <0>         0.4356
@<TRIPOS>BOND
     1    1    2 1
     2    1   31 1
     3    1   32 1
     4    1   33 1
     5    2    3 1
     6    2   34 1
     7    2   35 1
     8    3    4 1
     9    3    5 1
    10    3   13 1
    11    5    6 1
    12    5   36 1
    13    5   37 1
    14    6    7 1
    15    6   38 1
    16    6   39 1
    17    7   12 ar
    18    7    8 ar
    19    8    9 ar
    20    8   40 1
    21    9   10 ar
    22    9   41 1
    23   10   11 ar
    24   10   42 1
    25   11   12 ar
    26   11   43 1
    27   12   44 1
    28   13   14 1
    29   14   15 1
    30   14   21 1
    31   14   16 1
    32   16   17 2
    33   16   45 1
    34   17   18 1
    35   17   28 1
    36   18   19 1
    37   18   46 1
    38   18   47 1
    39   19   20 1
    40   19   21 1
    41   19   27 1
    42   21   22 1
    43   21   23 1
    44   23   24 am
    45   23   48 1
    46   24   25 2
    47   24   26 1
    48   26   49 1
    49   26   50 1
    50   26   51 1
    51   27   52 1
    52   27   53 1
    53   27   54 1
    54   28   29 2
    55   28   30 1
@<TRIPOS>MOLECULE
CHEMBL81083
   58    60     0     0     0
SMALL
USER_CHARGES

@<TRIPOS>ATOM
      1 C1         -0.0184    1.5028    0.0103 C.3       1 <0>        -0.1756
      2 C2          0.0021   -0.0041    0.0020 C.2       1 <0>         0.5089
      3 O1          1.0605   -0.5961   -0.0113 O.2       1 <0>        -0.4918
      4 N1         -1.1558   -0.6938    0.0094 N.am      1 <0>        -0.7552
      5 C3         -1.1360   -2.1586    0.0013 C.3       1 <0>         0.1296
      6 H1         -0.2957   -2.5101   -0.5975 H         1 <0>         0.1260
      7 C4         -2.4478   -2.6884   -0.5906 C.3       1 <0>         0.0218
      8 H2         -3.2717   -2.4658    0.0874 H         1 <0>         0.1504
      9 C5         -2.3238   -4.2030   -0.7689 C.3       1 <0>        -0.0813
     10 C6         -1.8244   -4.8332    0.4985 C.2       1 <0>        -0.1587
     11 C7         -1.2384   -4.1610    1.4693 C.2       1 <0>        -0.1609
     12 C8         -0.9994   -2.6787    1.4338 C.3       1 <0>         0.1216
     13 H3         -1.7318   -2.1818    2.0700 H         1 <0>         0.0742
     14 O2          0.3148   -2.3946    1.9177 O.3       1 <0>        -0.3509
     15 C9          0.3825   -2.1905    3.3304 C.3       1 <0>         0.0615
     16 C10         1.8285   -1.8955    3.7343 C.3       1 <0>        -0.1084
     17 C11         1.9010   -1.6770    5.2469 C.3       1 <0>        -0.0785
     18 C12         3.3252   -1.3864    5.6448 C.ar      1 <0>        -0.0780
     19 C13         4.1725   -2.4266    5.9813 C.ar      1 <0>        -0.1112
     20 C14         5.4778   -2.1662    6.3464 C.ar      1 <0>        -0.1063
     21 C15         5.9415   -0.8525    6.3757 C.ar      1 <0>        -0.0500
     22 C16         5.0835    0.1914    6.0357 C.ar      1 <0>        -0.1084
     23 C17         3.7818   -0.0809    5.6667 C.ar      1 <0>        -0.1133
     24 C18         7.3437   -0.5663    6.7679 C.ar      1 <0>        -0.0450
     25 C19         8.2031   -1.6107    7.1027 C.ar      1 <0>        -0.1116
     26 C20         9.5065   -1.3389    7.4664 C.ar      1 <0>        -0.1167
     27 C21         9.9599   -0.0325    7.4992 C.ar      1 <0>        -0.1199
     28 C22         9.1109    1.0082    7.1683 C.ar      1 <0>        -0.1177
     29 C23         7.8074    0.7473    6.7972 C.ar      1 <0>        -0.1125
     30 C24        -1.9988   -6.2801    0.6667 C.2       1 <0>         0.5112
     31 O3         -1.6044   -6.8294    1.6866 O.co2     1 <0>        -0.6716
     32 O4         -2.5387   -6.9376   -0.2129 O.co2     1 <0>        -0.6867
     33 N2         -2.6941   -2.0529   -1.8919 N.4       1 <0>        -0.6302
     34 H4          1.0042    1.8801    0.0026 H         1 <0>         0.0980
     35 H5         -0.5455    1.8639   -0.8728 H         1 <0>         0.0874
     36 H6         -0.5286    1.8543    0.9071 H         1 <0>         0.0906
     37 H7         -2.0023   -0.2203    0.0200 H         1 <0>         0.3955
     38 H8         -3.2999   -4.6185   -1.0189 H         1 <0>         0.1115
     39 H9         -1.6249   -4.4155   -1.5779 H         1 <0>         0.0963
     40 H10        -0.9078   -4.7081    2.3398 H         1 <0>         0.1358
     41 H11        -0.2511   -1.3477    3.6065 H         1 <0>         0.0444
     42 H12         0.0377   -3.0879    3.8441 H         1 <0>         0.0563
     43 H13         2.4621   -2.7383    3.4582 H         1 <0>         0.0754
     44 H14         2.1733   -0.9981    3.2207 H         1 <0>         0.0712
     45 H15         1.2674   -0.8342    5.5231 H         1 <0>         0.0726
     46 H16         1.5561   -2.5744    5.7606 H         1 <0>         0.0772
     47 H17         3.8120   -3.4444    5.9586 H         1 <0>         0.1261
     48 H18         6.1385   -2.9791    6.6093 H         1 <0>         0.1259
     49 H19         5.4377    1.2115    6.0571 H         1 <0>         0.1245
     50 H20         3.1173    0.7271    5.3984 H         1 <0>         0.1221
     51 H21         7.8500   -2.6310    7.0781 H         1 <0>         0.1255
     52 H22        10.1735   -2.1476    7.7261 H         1 <0>         0.1248
     53 H23        10.9804    0.1758    7.7847 H         1 <0>         0.1230
     54 H24         9.4699    2.0264    7.1959 H         1 <0>         0.1241
     55 H25         7.1466    1.5602    6.5347 H         1 <0>         0.1244
     56 H26        -1.9333   -2.2657   -2.5196 H         1 <0>         0.4356
     57 H27        -3.5576   -2.4031   -2.2792 H         1 <0>         0.4404
     58 H28        -2.7607   -1.0534   -1.7709 H         1 <0>         0.4266
@<TRIPOS>BOND
     1    1    2 1
     2    1   34 1
     3    1   35 1
     4    1   36 1
     5    2    3 2
     6    2    4 am
     7    4    5 1
     8    4   37 1
     9    5    6 1
    10    5   12 1
    11    5    7 1
    12    7    8 1
    13    7    9 1
    14    7   33 1
    15    9   10 1
    16    9   38 1
    17    9   39 1
    18   10   11 2
    19   10   30 1
    20   11   12 1
    21   11   40 1
    22   12   13 1
    23   12   14 1
    24   14   15 1
    25   15   16 1
    26   15   41 1
    27   15   42 1
    28   16   17 1
    29   16   43 1
    30   16   44 1
    31   17   18 1
    32   17   45 1
    33   17   46 1
    34   18   23 ar
    35   18   19 ar
    36   19   20 ar
    37   19   47 1
    38   20   21 ar
    39   20   48 1
    40   21   22 ar
    41   21   24 1
    42   22   23 ar
    43   22   49 1
    44   23   50 1
    45   24   29 ar
    46   24   25 ar
    47   25   26 ar
    48   25   51 1
    49   26   27 ar
    50   26   52 1
    51   27   28 ar
    52   27   53 1
    53   28   29 ar
    54   28   54 1
    55   29   55 1
    56   30   31 2
    57   30   32 1
    58   33   56 1
    59   33   57 1
    60   33   58 1
@<TRIPOS>MOLECULE
CHEMBL98262
   47    47     0     0     0
SMALL
USER_CHARGES

@<TRIPOS>ATOM
      1 C1          2.7562   -2.1656   -1.0014 C.3       1 <0>        -0.1705
      2 C2          2.2362   -0.7430   -1.2173 C.3       1 <0>         0.1212
      3 N1          0.7712   -0.7524   -1.2110 N.am      1 <0>        -0.6000
      4 C3          0.0422   -0.4724    0.0285 C.3       1 <0>         0.0980
      5 C4         -0.0964    1.0407    0.2079 C.3       1 <0>        -0.1694
      6 C5          0.0942   -1.0186   -2.3455 C.2       1 <0>         0.5393
      7 O1          0.6926   -1.1490   -3.3924 O.2       1 <0>        -0.5000
      8 C6         -1.4063   -1.1542   -2.3134 C.3       1 <0>         0.0464
      9 H1         -1.7123   -1.6291   -1.3811 H         1 <0>         0.1009
     10 C7         -2.0535    0.2329   -2.4238 C.3       1 <0>         0.1047
     11 H2         -1.6978    0.8700   -1.6140 H         1 <0>         0.1270
     12 C8         -3.5728    0.0635   -2.3188 C.3       1 <0>         0.1819
     13 H3         -3.8417   -0.1734   -1.2894 H         1 <0>         0.1091
     14 C9         -4.0160   -1.0544   -3.2231 C.2       1 <0>        -0.3631
     15 C10        -3.1695   -1.9568   -3.7004 C.2       1 <0>         0.1204
     16 O2         -1.8427   -1.9446   -3.4227 O.3       1 <0>        -0.2542
     17 C11        -3.6944   -3.0204   -4.5710 C.2       1 <0>         0.5238
     18 O3         -4.8875   -3.0581   -4.8395 O.co2     1 <0>        -0.6580
     19 O4         -2.9378   -3.8672   -5.0265 O.co2     1 <0>        -0.6400
     20 N2         -4.2320    1.3083   -2.7217 N.pl3     1 <0>        -0.6780
     21 C12        -5.4832    1.6021   -2.2535 C.cat     1 <0>         0.7458
     22 N3         -6.0826    2.7338   -2.6198 N.pl3     1 <0>        -0.7988
     23 N4         -6.1023    0.7565   -1.4314 N.pl3     1 <0>        -0.7910
     24 N5         -1.7109    0.8366   -3.7140 N.am      1 <0>        -0.7263
     25 C13        -0.5527    1.5110   -3.8561 C.2       1 <0>         0.5204
     26 O5          0.2059    1.6182   -2.9159 O.2       1 <0>        -0.5231
     27 C14        -0.2003    2.1320   -5.1832 C.3       1 <0>        -0.1692
     28 H4          2.4717   -2.5095   -0.0070 H         1 <0>         0.0544
     29 H5          2.3250   -2.8279   -1.7521 H         1 <0>         0.0611
     30 H6          3.8425   -2.1730   -1.0913 H         1 <0>         0.0675
     31 H7          2.5988   -0.0982   -0.4167 H         1 <0>         0.0765
     32 H8          2.5930   -0.3673   -2.1762 H         1 <0>         0.0835
     33 H9         -0.9483   -0.9245   -0.0225 H         1 <0>         0.0729
     34 H10         0.5891   -0.8899    0.8739 H         1 <0>         0.0832
     35 H11         0.8874    1.5057    0.1453 H         1 <0>         0.0664
     36 H12        -0.7386    1.4422   -0.5760 H         1 <0>         0.0593
     37 H13        -0.5369    1.2522    1.1823 H         1 <0>         0.0635
     38 H14        -5.0595   -1.1245   -3.4924 H         1 <0>         0.1477
     39 H15        -3.7812    1.9241   -3.3204 H         1 <0>         0.4310
     40 H16        -5.6318    3.3496   -3.2185 H         1 <0>         0.4383
     41 H17        -5.6658   -0.0676   -1.1647 H         1 <0>         0.4421
     42 H18        -6.9896    0.9649   -1.0994 H         1 <0>         0.4377
     43 H19        -2.3176    0.7508   -4.4659 H         1 <0>         0.4065
     44 H20        -0.9963    1.9323   -5.9006 H         1 <0>         0.0758
     45 H21        -0.0831    3.2087   -5.0609 H         1 <0>         0.0950
     46 H22         0.7334    1.7040   -5.5481 H         1 <0>         0.1020
     47 H23        -6.9699    2.9421   -2.2878 H         1 <0>         0.4384
@<TRIPOS>BOND
     1    1    2 1
     2    1   28 1
     3    1   29 1
     4    1   30 1
     5    2    3 1
     6    2   31 1
     7    2   32 1
     8    3    4 1
     9    3    6 am
    10    4    5 1
    11    4   33 1
    12    4   34 1
    13    5   35 1
    14    5   36 1
    15    5   37 1
    16    6    7 2
    17    6    8 1
    18    8    9 1
    19    8   16 1
    20    8   10 1
    21   10   11 1
    22   10   12 1
    23   10   24 1
    24   12   13 1
    25   12   14 1
    26   12   20 1
    27   14   15 2
    28   14   38 1
    29   15   16 1
    30   15   17 1
    31   17   18 2
    32   17   19 1
    33   20   21 1
    34   20   39 1
    35   21   22 2
    36   21   23 1
    37   22   40 1
    38   22   47 1
    39   23   41 1
    40   23   42 1
    41   24   25 am
    42   24   43 1
    43   25   26 2
    44   25   27 1
    45   27   44 1
    46   27   45 1
    47   27   46 1
@<TRIPOS>MOLECULE
CHEMBL311059
   46    46     0     0     0
SMALL
USER_CHARGES

@<TRIPOS>ATOM
      1 C1         -0.0187    1.5258    0.0104 C.3       1 <0>        -0.1519
      2 C2          0.0021   -0.0041    0.0020 C.3       1 <0>        -0.1173
      3 C3          0.7421   -0.5109    1.2415 C.3       1 <0>         0.0870
      4 C4          0.8719   -2.0337    1.1708 C.3       1 <0>        -0.1758
      5 O1          0.0101   -0.1492    2.4144 O.3       1 <0>        -0.3713
      6 C5          0.8273    0.0616    3.5675 C.3       1 <0>         0.1162
      7 H1          1.7132   -0.5702    3.5030 H         1 <0>         0.0817
      8 C6          1.2463    1.5018    3.6240 C.2       1 <0>        -0.1596
      9 C7          0.7065    2.3905    4.4343 C.2       1 <0>        -0.1533
     10 C8         -0.3900    2.0729    5.4089 C.3       1 <0>        -0.0841
     11 C9         -1.0581    0.7477    5.0365 C.3       1 <0>         0.1196
     12 H2         -1.6306    0.8719    4.1173 H         1 <0>         0.1214
     13 C10         0.0347   -0.3031    4.8244 C.3       1 <0>         0.1507
     14 H3         -0.4240   -1.2835    4.6964 H         1 <0>         0.1103
     15 N1          0.9310   -0.3224    5.9831 N.am      1 <0>        -0.7282
     16 C11         1.6408   -1.4323    6.2676 C.2       1 <0>         0.5144
     17 O2          1.5375   -2.4150    5.5644 O.2       1 <0>        -0.5373
     18 C12         2.5628   -1.4522    7.4595 C.3       1 <0>        -0.1738
     19 N2         -1.9505    0.3253    6.1188 N.pl3     1 <0>        -0.6855
     20 C13        -3.2313    0.8023    6.1746 C.cat     1 <0>         0.7440
     21 N3         -4.0427    0.4182    7.1586 N.pl3     1 <0>        -0.7995
     22 N4         -3.6671    1.6509    5.2450 N.pl3     1 <0>        -0.7909
     23 C14         1.2057    3.7689    4.3801 C.2       1 <0>         0.5104
     24 O3          2.0988    4.0659    3.5980 O.co2     1 <0>        -0.6754
     25 O4          0.7291    4.6217    5.1172 O.co2     1 <0>        -0.6906
     26 H4          1.0039    1.9031    0.0027 H         1 <0>         0.0565
     27 H5         -0.5459    1.8868   -0.8726 H         1 <0>         0.0525
     28 H6         -0.5289    1.8773    0.9072 H         1 <0>         0.0605
     29 H7         -1.0205   -0.3814    0.0098 H         1 <0>         0.0668
     30 H8          0.5123   -0.3556   -0.8948 H         1 <0>         0.0748
     31 H9          1.7350   -0.0630    1.2804 H         1 <0>         0.0661
     32 H10         1.4302   -2.3096    0.2763 H         1 <0>         0.0666
     33 H11         1.3991   -2.3948    2.0539 H         1 <0>         0.0587
     34 H12        -0.1210   -2.4817    1.1320 H         1 <0>         0.0610
     35 H13         2.0354    1.8287    2.9631 H         1 <0>         0.1271
     36 H14         0.0292    1.9968    6.4122 H         1 <0>         0.0831
     37 H15        -1.1330    2.8702    5.3893 H         1 <0>         0.0907
     38 H16         1.0136    0.4635    6.5456 H         1 <0>         0.4081
     39 H17         2.5231   -0.4877    7.9656 H         1 <0>         0.0789
     40 H18         2.2496   -2.2370    8.1480 H         1 <0>         0.0974
     41 H19         3.5824   -1.6464    7.1268 H         1 <0>         0.1008
     42 H20        -1.6332   -0.2927    6.7957 H         1 <0>         0.4319
     43 H21        -4.9509    0.7565    7.1982 H         1 <0>         0.4382
     44 H22        -3.0762    1.9306    4.5284 H         1 <0>         0.4431
     45 H23        -4.5753    1.9892    5.2846 H         1 <0>         0.4380
     46 H24        -3.7254   -0.1997    7.8356 H         1 <0>         0.4380
@<TRIPOS>BOND
     1    1    2 1
     2    1   26 1
     3    1   27 1
     4    1   28 1
     5    2    3 1
     6    2   29 1
     7    2   30 1
     8    3    4 1
     9    3    5 1
    10    3   31 1
    11    4   32 1
    12    4   33 1
    13    4   34 1
    14    5    6 1
    15    6    7 1
    16    6   13 1
    17    6    8 1
    18    8    9 2
    19    8   35 1
    20    9   10 1
    21    9   23 1
    22   10   11 1
    23   10   36 1
    24   10   37 1
    25   11   12 1
    26   11   13 1
    27   11   19 1
    28   13   14 1
    29   13   15 1
    30   15   16 am
    31   15   38 1
    32   16   17 2
    33   16   18 1
    34   18   39 1
    35   18   40 1
    36   18   41 1
    37   19   20 1
    38   19   42 1
    39   20   21 2
    40   20   22 1
    41   21   43 1
    42   21   46 1
    43   22   44 1
    44   22   45 1
    45   23   24 2
    46   23   25 1
@<TRIPOS>MOLECULE
CHEMBL311059__1
   46    46     0     0     0
SMALL
USER_CHARGES

@<TRIPOS>ATOM
      1 C1         -0.0187    1.5258    0.0104 C.3       1 <0>        -0.1494
      2 C2          0.0021   -0.0041    0.0020 C.3       1 <0>        -0.1205
      3 C3          0.7421   -0.5109    1.2415 C.3       1 <0>         0.0902
      4 C4          0.6554   -2.0374    1.2986 C.3       1 <0>        -0.1813
      5 O1          2.1131   -0.1139    1.1734 O.3       1 <0>        -0.3715
      6 C5          2.7223    0.0935    2.4492 C.3       1 <0>         0.1169
      7 H1          1.9666    0.4261    3.1608 H         1 <0>         0.0817
      8 C6          3.3240   -1.1954    2.9287 C.2       1 <0>        -0.1601
      9 C7          4.6146   -1.4607    2.8890 C.2       1 <0>        -0.1547
     10 C8          5.6470   -0.5044    2.3668 C.3       1 <0>        -0.0838
     11 C9          4.9782    0.5849    1.5257 C.3       1 <0>         0.1195
     12 H2          4.6088    0.1539    0.5952 H         1 <0>         0.1215
     13 C10         3.8082    1.1643    2.3249 C.3       1 <0>         0.1501
     14 H3          3.4072    2.0335    1.8035 H         1 <0>         0.1103
     15 N1          4.2689    1.5553    3.6595 N.am      1 <0>        -0.7280
     16 C11         3.6017    2.4989    4.3530 C.2       1 <0>         0.5144
     17 O2          2.6200    3.0243    3.8723 O.2       1 <0>        -0.5372
     18 C12         4.0756    2.9012    5.7258 C.3       1 <0>        -0.1739
     19 N2          5.9482    1.6416    1.2276 N.pl3     1 <0>        -0.6856
     20 C13         6.7886    1.5160    0.1557 C.cat     1 <0>         0.7439
     21 N3          7.6704    2.4767   -0.1153 N.pl3     1 <0>        -0.7996
     22 N4          6.7251    0.4330   -0.6171 N.pl3     1 <0>        -0.7909
     23 C14         5.0679   -2.7655    3.3831 C.2       1 <0>         0.5102
     24 O3          4.2554   -3.5717    3.8162 O.co2     1 <0>        -0.6758
     25 O4          6.2585   -3.0477    3.3623 O.co2     1 <0>        -0.6903
     26 H4          1.0039    1.9031    0.0027 H         1 <0>         0.0559
     27 H5         -0.5459    1.8868   -0.8726 H         1 <0>         0.0531
     28 H6         -0.5289    1.8773    0.9072 H         1 <0>         0.0527
     29 H7         -1.0205   -0.3814    0.0098 H         1 <0>         0.0765
     30 H8          0.5123   -0.3556   -0.8948 H         1 <0>         0.0695
     31 H9          0.2852   -0.0874    2.1360 H         1 <0>         0.0621
     32 H10         1.1826   -2.3985    2.1817 H         1 <0>         0.0695
     33 H11        -0.3904   -2.3402    1.3506 H         1 <0>         0.0641
     34 H12         1.1123   -2.4609    0.4042 H         1 <0>         0.0630
     35 H13         2.6616   -1.9484    3.3294 H         1 <0>         0.1293
     36 H14         6.1697   -0.0437    3.2050 H         1 <0>         0.0830
     37 H15         6.3638   -1.0474    1.7509 H         1 <0>         0.0906
     38 H16         5.0540    1.1351    4.0439 H         1 <0>         0.4081
     39 H17         4.9638    2.3257    5.9867 H         1 <0>         0.0789
     40 H18         4.3172    3.9641    5.7298 H         1 <0>         0.0974
     41 H19         3.2886    2.7047    6.4539 H         1 <0>         0.1009
     42 H20         5.9944    2.4303    1.7904 H         1 <0>         0.4319
     43 H21         8.2664    2.3877   -0.8754 H         1 <0>         0.4382
     44 H22         6.0829   -0.2667   -0.4197 H         1 <0>         0.4432
     45 H23         7.3210    0.3440   -1.3772 H         1 <0>         0.4379
     46 H24         7.7167    3.2654    0.4475 H         1 <0>         0.4380
@<TRIPOS>BOND
     1    1    2 1
     2    1   26 1
     3    1   27 1
     4    1   28 1
     5    2    3 1
     6    2   29 1
     7    2   30 1
     8    3    4 1
     9    3    5 1
    10    3   31 1
    11    4   32 1
    12    4   33 1
    13    4   34 1
    14    5    6 1
    15    6    7 1
    16    6   13 1
    17    6    8 1
    18    8    9 2
    19    8   35 1
    20    9   10 1
    21    9   23 1
    22   10   11 1
    23   10   36 1
    24   10   37 1
    25   11   12 1
    26   11   13 1
    27   11   19 1
    28   13   14 1
    29   13   15 1
    30   15   16 am
    31   15   38 1
    32   16   17 2
    33   16   18 1
    34   18   39 1
    35   18   40 1
    36   18   41 1
    37   19   20 1
    38   19   42 1
    39   20   21 2
    40   20   22 1
    41   21   43 1
    42   21   46 1
    43   22   44 1
    44   22   45 1
    45   23   24 2
    46   23   25 1
@<TRIPOS>MOLECULE
CHEMBL294700
   55    56     0     0     0
SMALL
USER_CHARGES

@<TRIPOS>ATOM
      1 C1         -0.1146    1.7971    0.1992 C.3       1 <0>        -0.1346
      2 C2          0.3514    0.3777   -0.1310 C.3       1 <0>         0.1464
      3 C3         -0.8668   -0.5305   -0.3257 C.3       1 <0>        -0.1328
      4 C4         -0.3964   -1.9741   -0.5175 C.3       1 <0>        -0.1188
      5 C5          0.3567   -2.4373    0.7316 C.3       1 <0>        -0.1415
      6 C6          1.5888   -1.5507    0.9383 C.3       1 <0>         0.1005
      7 N1          1.1593   -0.1462    0.9787 N.am      1 <0>        -0.6032
      8 C7          1.5000    0.6466    2.0141 C.2       1 <0>         0.5038
      9 O1          1.0848    1.7848    2.0686 O.2       1 <0>        -0.4939
     10 C8          2.3969    0.1186    3.1040 C.3       1 <0>         0.1300
     11 C9          1.5468   -0.3048    4.3036 C.3       1 <0>        -0.1073
     12 H1          0.9534    0.5351    4.6650 H         1 <0>         0.1152
     13 C10         0.6290   -1.4937    3.9250 C.3       1 <0>        -0.0902
     14 C11         0.3394   -2.1522    5.2967 C.3       1 <0>        -0.1567
     15 C12         1.6741   -2.0361    6.0614 C.3       1 <0>        -0.1132
     16 C13         2.4421   -0.8582    5.4314 C.3       1 <0>         0.1181
     17 H2          3.3886   -1.2079    5.0191 H         1 <0>         0.1027
     18 N2          2.6847    0.1810    6.4351 N.pl3     1 <0>        -0.6374
     19 C14         3.7510    0.1284    7.1829 C.cat     1 <0>         0.7328
     20 N3          4.6480   -0.9021    7.0297 N.pl3     1 <0>        -0.8142
     21 N4          3.9787    1.1036    8.1249 N.pl3     1 <0>        -0.8219
     22 C15        -0.0415   -3.5992    5.1171 C.2       1 <0>         0.4970
     23 O2          0.2161   -4.4102    5.9903 O.co2     1 <0>        -0.6944
     24 O3         -0.6071   -3.9588    4.0987 O.co2     1 <0>        -0.6812
     25 N5          3.3343    1.1666    3.5154 N.am      1 <0>        -0.7303
     26 C16         2.8690    2.3301    4.0116 C.2       1 <0>         0.4979
     27 O4          1.6743    2.5095    4.1176 O.2       1 <0>        -0.4890
     28 C17         3.8334    3.4080    4.4348 C.3       1 <0>        -0.1748
     29 H3          0.7495    2.4591    0.2568 H         1 <0>         0.0660
     30 H4         -0.7901    2.1485   -0.5807 H         1 <0>         0.0423
     31 H5         -0.6351    1.7951    1.1569 H         1 <0>         0.0728
     32 H6          0.9485    0.3921   -1.0428 H         1 <0>         0.0693
     33 H7         -1.5092   -0.4709    0.5529 H         1 <0>         0.0697
     34 H8         -1.4232   -0.2091   -1.2062 H         1 <0>         0.0729
     35 H9         -1.2600   -2.6188   -0.6808 H         1 <0>         0.0690
     36 H10         0.2656   -2.0285   -1.3817 H         1 <0>         0.0600
     37 H11        -0.2972   -2.3597    1.6003 H         1 <0>         0.0877
     38 H12         0.6711   -3.4731    0.6037 H         1 <0>         0.0794
     39 H13         2.0732   -1.8119    1.8791 H         1 <0>         0.0844
     40 H14         2.2860   -1.6960    0.1132 H         1 <0>         0.0685
     41 H15         2.9537   -0.7413    2.7317 H         1 <0>         0.1105
     42 H16        -0.2930   -1.1386    3.4646 H         1 <0>         0.0783
     43 H17         1.1490   -2.1882    3.2651 H         1 <0>         0.0833
     44 H18        -0.4487   -1.6115    5.8206 H         1 <0>         0.0736
     45 H19         1.4842   -1.8344    7.1156 H         1 <0>         0.0713
     46 H20         2.2471   -2.9572    5.9544 H         1 <0>         0.0930
     47 H21         4.4873   -1.5902    6.3651 H         1 <0>         0.4377
     48 H22         5.4415   -0.9412    7.5863 H         1 <0>         0.4338
     49 H23         3.3459    1.8308    8.2330 H         1 <0>         0.4356
     50 H24         4.7722    1.0646    8.6814 H         1 <0>         0.4346
     51 H25         4.2899    1.0230    3.4306 H         1 <0>         0.4015
     52 H26         4.4390    3.7097    3.5802 H         1 <0>         0.0889
     53 H27         3.2765    4.2679    4.8071 H         1 <0>         0.0943
     54 H28         4.4821    3.0262    5.2231 H         1 <0>         0.0763
     55 H29         2.0519    0.9081    6.5432 H         1 <0>         0.4366
@<TRIPOS>BOND
     1    1    2 1
     2    1   29 1
     3    1   30 1
     4    1   31 1
     5    2    7 1
     6    2    3 1
     7    2   32 1
     8    3    4 1
     9    3   33 1
    10    3   34 1
    11    4    5 1
    12    4   35 1
    13    4   36 1
    14    5    6 1
    15    5   37 1
    16    5   38 1
    17    6    7 1
    18    6   39 1
    19    6   40 1
    20    7    8 am
    21    8    9 2
    22    8   10 1
    23   10   11 1
    24   10   25 1
    25   10   41 1
    26   11   12 1
    27   11   16 1
    28   11   13 1
    29   13   14 1
    30   13   42 1
    31   13   43 1
    32   14   15 1
    33   14   22 1
    34   14   44 1
    35   15   16 1
    36   15   45 1
    37   15   46 1
    38   16   17 1
    39   16   18 1
    40   18   19 2
    41   18   55 1
    42   19   20 1
    43   19   21 1
    44   20   47 1
    45   20   48 1
    46   21   49 1
    47   21   50 1
    48   22   23 2
    49   22   24 1
    50   25   26 am
    51   25   51 1
    52   26   27 2
    53   26   28 1
    54   28   52 1
    55   28   53 1
    56   28   54 1
@<TRIPOS>MOLECULE
CHEMBL294700__1
   55    56     0     0     0
SMALL
USER_CHARGES

@<TRIPOS>ATOM
      1 C1         -0.1095    1.5469    0.0644 C.3       1 <0>        -0.1360
      2 C2          0.5113    0.1810   -0.2353 C.3       1 <0>         0.1469
      3 C3         -0.5989   -0.8400   -0.5035 C.3       1 <0>        -0.1349
      4 C4          0.0201   -2.2303   -0.6647 C.3       1 <0>        -0.1188
      5 C5          0.7367   -2.6246    0.6288 C.3       1 <0>        -0.1440
      6 C6          1.8620   -1.6239    0.9099 C.3       1 <0>         0.1006
      7 N1          1.2967   -0.2678    0.9225 N.am      1 <0>        -0.6075
      8 C7          1.4949    0.5491    1.9761 C.2       1 <0>         0.5031
      9 O1          0.9474    1.6305    2.0164 O.2       1 <0>        -0.4869
     10 C8          2.3969    0.1186    3.1040 C.3       1 <0>         0.1292
     11 C9          1.5468   -0.3048    4.3036 C.3       1 <0>        -0.0996
     12 H1          0.9565    0.5397    4.6593 H         1 <0>         0.1150
     13 C10         0.6190   -1.4669    3.9082 C.3       1 <0>        -0.1155
     14 C11         0.9949   -2.6584    4.8131 C.3       1 <0>        -0.1528
     15 C12         1.6505   -2.0015    6.0532 C.3       1 <0>        -0.1132
     16 C13         2.4542   -0.8294    5.4355 C.3       1 <0>         0.1165
     17 H2          3.4007   -1.1876    5.0306 H         1 <0>         0.1065
     18 N2          2.6856    0.2174    6.4339 N.pl3     1 <0>        -0.6359
     19 C14         3.7556    0.1837    7.1775 C.cat     1 <0>         0.7335
     20 N3          4.6670   -0.8342    7.0248 N.pl3     1 <0>        -0.8159
     21 N4          3.9727    1.1661    8.1145 N.pl3     1 <0>        -0.8212
     22 C15        -0.2384   -3.4265    5.2132 C.2       1 <0>         0.4962
     23 O2         -0.2115   -4.6448    5.2534 O.co2     1 <0>        -0.6892
     24 O3         -1.2630   -2.8297    5.4967 O.co2     1 <0>        -0.6853
     25 N5          3.2636    1.2351    3.4894 N.am      1 <0>        -0.7314
     26 C16         2.7217    2.3886    3.9279 C.2       1 <0>         0.4943
     27 O4          1.5166    2.5024    4.0034 O.2       1 <0>        -0.4832
     28 C17         3.6133    3.5371    4.3244 C.3       1 <0>        -0.1742
     29 H3          0.6815    2.2876    0.1820 H         1 <0>         0.0656
     30 H4         -0.7608    1.8386   -0.7595 H         1 <0>         0.0433
     31 H5         -0.6914    1.4877    0.9841 H         1 <0>         0.0750
     32 H6          1.1589    0.2576   -1.1087 H         1 <0>         0.0696
     33 H7         -1.2966   -0.8472    0.3339 H         1 <0>         0.0713
     34 H8         -1.1289   -0.5696   -1.4168 H         1 <0>         0.0749
     35 H9         -0.7653   -2.9547   -0.8801 H         1 <0>         0.0698
     36 H10         0.7360   -2.2160   -1.4865 H         1 <0>         0.0627
     37 H11         0.0264   -2.6150    1.4556 H         1 <0>         0.0793
     38 H12         1.1573   -3.6244    0.5215 H         1 <0>         0.0805
     39 H13         2.3110   -1.8416    1.8790 H         1 <0>         0.0845
     40 H14         2.6193   -1.6968    0.1293 H         1 <0>         0.0715
     41 H15         3.0100   -0.7217    2.7785 H         1 <0>         0.1091
     42 H16        -0.4214   -1.1867    4.0728 H         1 <0>         0.0935
     43 H17         0.7744   -1.7293    2.8617 H         1 <0>         0.0769
     44 H18         1.7054   -3.3123    4.3074 H         1 <0>         0.0734
     45 H19         0.8906   -1.6285    6.7398 H         1 <0>         0.0878
     46 H20         2.3157   -2.7036    6.5559 H         1 <0>         0.0747
     47 H21         4.5138   -1.5272    6.3637 H         1 <0>         0.4368
     48 H22         5.4633   -0.8592    7.5782 H         1 <0>         0.4338
     49 H23         3.3296    1.8842    8.2222 H         1 <0>         0.4361
     50 H24         4.7690    1.1410    8.6679 H         1 <0>         0.4347
     51 H25         4.2274    1.1441    3.4291 H         1 <0>         0.4010
     52 H26         4.2189    3.8387    3.4698 H         1 <0>         0.0883
     53 H27         3.0002    4.3774    4.6499 H         1 <0>         0.0948
     54 H28         4.2657    3.2258    5.1402 H         1 <0>         0.0768
     55 H29         2.0425    0.9356    6.5417 H         1 <0>         0.4379
@<TRIPOS>BOND
     1    1    2 1
     2    1   29 1
     3    1   30 1
     4    1   31 1
     5    2    7 1
     6    2    3 1
     7    2   32 1
     8    3    4 1
     9    3   33 1
    10    3   34 1
    11    4    5 1
    12    4   35 1
    13    4   36 1
    14    5    6 1
    15    5   37 1
    16    5   38 1
    17    6    7 1
    18    6   39 1
    19    6   40 1
    20    7    8 am
    21    8    9 2
    22    8   10 1
    23   10   11 1
    24   10   25 1
    25   10   41 1
    26   11   12 1
    27   11   16 1
    28   11   13 1
    29   13   14 1
    30   13   42 1
    31   13   43 1
    32   14   15 1
    33   14   22 1
    34   14   44 1
    35   15   16 1
    36   15   45 1
    37   15   46 1
    38   16   17 1
    39   16   18 1
    40   18   19 2
    41   18   55 1
    42   19   20 1
    43   19   21 1
    44   20   47 1
    45   20   48 1
    46   21   49 1
    47   21   50 1
    48   22   23 2
    49   22   24 1
    50   25   26 am
    51   25   51 1
    52   26   27 2
    53   26   28 1
    54   28   52 1
    55   28   53 1
    56   28   54 1
@<TRIPOS>MOLECULE
CHEMBL294700__2
   55    56     0     0     0
SMALL
USER_CHARGES

@<TRIPOS>ATOM
      1 C1          0.3810    2.2127    0.1772 C.3       1 <0>        -0.1398
      2 C2          0.2585    0.7088   -0.0761 C.3       1 <0>         0.1449
      3 C3         -1.2205    0.3101   -0.0955 C.3       1 <0>        -0.1336
      4 C4         -1.3329   -1.2119   -0.2097 C.3       1 <0>        -0.1204
      5 C5         -0.6721   -1.8666    1.0055 C.3       1 <0>        -0.1367
      6 C6          0.8131   -1.4925    1.0375 C.3       1 <0>         0.1061
      7 N1          0.9330   -0.0286    1.0010 N.am      1 <0>        -0.6071
      8 C7          1.6481    0.6253    1.9377 C.2       1 <0>         0.5083
      9 O1          1.6655    1.8380    1.9503 O.2       1 <0>        -0.5026
     10 C8          2.4260   -0.1502    2.9694 C.3       1 <0>         0.1310
     11 C9          3.7420   -0.6348    2.3579 C.3       1 <0>        -0.1039
     12 H1          3.5494   -1.2537    1.4815 H         1 <0>         0.1050
     13 C10         4.6418    0.5693    1.9839 C.3       1 <0>        -0.0851
     14 C11         6.0605   -0.0523    1.9804 C.3       1 <0>        -0.1578
     15 C12         6.0420   -1.0440    3.1620 C.3       1 <0>        -0.1137
     16 C13         4.5663   -1.4174    3.4009 C.3       1 <0>         0.1109
     17 H2          4.2665   -1.1270    4.4079 H         1 <0>         0.1086
     18 N2          4.3734   -2.8576    3.2149 N.pl3     1 <0>        -0.6449
     19 C14         4.5483   -3.6733    4.2164 C.cat     1 <0>         0.7376
     20 N3          4.9137   -3.1820    5.4474 N.pl3     1 <0>        -0.8116
     21 N4          4.3672   -5.0249    4.0419 N.pl3     1 <0>        -0.8193
     22 C15         7.1035    1.0127    2.2020 C.2       1 <0>         0.4948
     23 O2          8.1507    0.7336    2.7605 O.co2     1 <0>        -0.6932
     24 O3          6.9001    2.1534    1.8227 O.co2     1 <0>        -0.6805
     25 N5          2.7101    0.7138    4.1179 N.am      1 <0>        -0.7157
     26 C16         1.7693    0.9096    5.0630 C.2       1 <0>         0.5188
     27 O4          0.7230    0.2984    5.0128 O.2       1 <0>        -0.5454
     28 C17         2.0176    1.8879    6.1820 C.3       1 <0>        -0.1770
     29 H3          1.4301    2.5049    0.1295 H         1 <0>         0.0750
     30 H4         -0.1823    2.7560   -0.5814 H         1 <0>         0.0457
     31 H5         -0.0173    2.4486    1.1640 H         1 <0>         0.0702
     32 H6          0.7186    0.4607   -1.0325 H         1 <0>         0.0736
     33 H7         -1.6989    0.6421    0.8259 H         1 <0>         0.0678
     34 H8         -1.7118    0.7763   -0.9495 H         1 <0>         0.0768
     35 H9         -2.3844   -1.4964   -0.2485 H         1 <0>         0.0678
     36 H10        -0.8328   -1.5458   -1.1188 H         1 <0>         0.0653
     37 H11        -1.1557   -1.5141    1.9166 H         1 <0>         0.0699
     38 H12        -0.7731   -2.9496    0.9352 H         1 <0>         0.0749
     39 H13         1.2663   -1.8736    1.9526 H         1 <0>         0.0751
     40 H14         1.3168   -1.9221    0.1715 H         1 <0>         0.0716
     41 H15         1.8396   -1.0087    3.2969 H         1 <0>         0.1063
     42 H16         4.3850    0.9513    0.9959 H         1 <0>         0.0821
     43 H17         4.5665    1.3557    2.7349 H         1 <0>         0.0818
     44 H18         6.2442   -0.5784    1.0436 H         1 <0>         0.0759
     45 H19         6.6148   -1.9363    2.9095 H         1 <0>         0.0745
     46 H20         6.4581   -0.5721    4.0520 H         1 <0>         0.0945
     47 H21         5.0414   -2.2284    5.5705 H         1 <0>         0.4382
     48 H22         5.0439   -3.7890    6.1927 H         1 <0>         0.4352
     49 H23         4.1094   -5.3716    3.1734 H         1 <0>         0.4358
     50 H24         4.4974   -5.6319    4.7872 H         1 <0>         0.4358
     51 H25         3.5753    1.1450    4.1982 H         1 <0>         0.4127
     52 H26         2.1835    2.8816    5.7658 H         1 <0>         0.0968
     53 H27         1.1514    1.9110    6.8433 H         1 <0>         0.0945
     54 H28         2.8974    1.5788    6.7464 H         1 <0>         0.0898
     55 H29         4.1155   -3.2043    2.3464 H         1 <0>         0.4349
@<TRIPOS>BOND
     1    1    2 1
     2    1   29 1
     3    1   30 1
     4    1   31 1
     5    2    7 1
     6    2    3 1
     7    2   32 1
     8    3    4 1
     9    3   33 1
    10    3   34 1
    11    4    5 1
    12    4   35 1
    13    4   36 1
    14    5    6 1
    15    5   37 1
    16    5   38 1
    17    6    7 1
    18    6   39 1
    19    6   40 1
    20    7    8 am
    21    8    9 2
    22    8   10 1
    23   10   11 1
    24   10   25 1
    25   10   41 1
    26   11   12 1
    27   11   16 1
    28   11   13 1
    29   13   14 1
    30   13   42 1
    31   13   43 1
    32   14   15 1
    33   14   22 1
    34   14   44 1
    35   15   16 1
    36   15   45 1
    37   15   46 1
    38   16   17 1
    39   16   18 1
    40   18   19 2
    41   18   55 1
    42   19   20 1
    43   19   21 1
    44   20   47 1
    45   20   48 1
    46   21   49 1
    47   21   50 1
    48   22   23 2
    49   22   24 1
    50   25   26 am
    51   25   51 1
    52   26   27 2
    53   26   28 1
    54   28   52 1
    55   28   53 1
    56   28   54 1
@<TRIPOS>MOLECULE
CHEMBL294700__3
   55    56     0     0     0
SMALL
USER_CHARGES

@<TRIPOS>ATOM
      1 C1          0.3968    2.0895    0.0617 C.3       1 <0>        -0.1393
      2 C2          0.2690    0.5759   -0.1216 C.3       1 <0>         0.1443
      3 C3         -1.2115    0.1824   -0.1264 C.3       1 <0>        -0.1333
      4 C4         -1.3297   -1.3428   -0.1700 C.3       1 <0>        -0.1207
      5 C5         -0.6744   -1.9427    1.0762 C.3       1 <0>        -0.1364
      6 C6          0.8122   -1.5733    1.0945 C.3       1 <0>         0.1053
      7 N1          0.9379   -0.1131    0.9903 N.am      1 <0>        -0.6056
      8 C7          1.6533    0.5810    1.8975 C.2       1 <0>         0.5089
      9 O1          1.6765    1.7928    1.8529 O.2       1 <0>        -0.5069
     10 C8          2.4243   -0.1486    2.9672 C.3       1 <0>         0.1284
     11 C9          3.7399   -0.6676    2.3834 C.3       1 <0>        -0.0947
     12 H1          3.5404   -1.3009    1.5190 H         1 <0>         0.1033
     13 C10         4.6378    0.5135    1.9755 C.3       1 <0>        -0.1113
     14 C11         5.9284    0.3956    2.8124 C.3       1 <0>        -0.1544
     15 C12         6.0000   -1.1046    3.1907 C.3       1 <0>        -0.1125
     16 C13         4.5155   -1.4631    3.4537 C.3       1 <0>         0.1100
     17 H2          4.2184   -1.1472    4.4537 H         1 <0>         0.1124
     18 N2          4.2962   -2.9014    3.2826 N.pl3     1 <0>        -0.6436
     19 C14         4.4274   -3.7062    4.2995 C.cat     1 <0>         0.7381
     20 N3          4.7716   -3.2052    5.5326 N.pl3     1 <0>        -0.8133
     21 N4          4.2216   -5.0560    4.1389 N.pl3     1 <0>        -0.8185
     22 C15         7.1281    0.7902    1.9902 C.2       1 <0>         0.4969
     23 O2          8.0225    1.4483    2.4936 O.co2     1 <0>        -0.6864
     24 O3          7.2043    0.4512    0.8215 O.co2     1 <0>        -0.6864
     25 N5          2.7091    0.7673    4.0746 N.am      1 <0>        -0.7146
     26 C16         1.7788    0.9852    5.0251 C.2       1 <0>         0.5180
     27 O4          0.7444    0.3520    5.0177 O.2       1 <0>        -0.5455
     28 C17         2.0238    2.0156    6.0971 C.3       1 <0>        -0.1769
     29 H3          1.4468    2.3756    0.0005 H         1 <0>         0.0743
     30 H4         -0.1648    2.5991   -0.7212 H         1 <0>         0.0459
     31 H5         -0.0005    2.3723    1.0366 H         1 <0>         0.0700
     32 H6          0.7305    0.2818   -1.0643 H         1 <0>         0.0747
     33 H7         -1.6909    0.5588    0.7773 H         1 <0>         0.0675
     34 H8         -1.6989    0.6102   -1.0025 H         1 <0>         0.0771
     35 H9         -2.3822   -1.6248   -0.1982 H         1 <0>         0.0680
     36 H10        -0.8286   -1.7205   -1.0612 H         1 <0>         0.0659
     37 H11        -1.1588   -1.5464    1.9685 H         1 <0>         0.0696
     38 H12        -0.7795   -3.0275    1.0560 H         1 <0>         0.0752
     39 H13         1.2616   -1.9131    2.0276 H         1 <0>         0.0748
     40 H14         1.3163   -2.0446    0.2508 H         1 <0>         0.0730
     41 H15         1.8329   -0.9880    3.3328 H         1 <0>         0.1074
     42 H16         4.8748    0.4529    0.9133 H         1 <0>         0.0973
     43 H17         4.1363    1.4565    2.1933 H         1 <0>         0.0781
     44 H18         5.8595    1.0122    3.7086 H         1 <0>         0.0738
     45 H19         6.3982   -1.6929    2.3639 H         1 <0>         0.0904
     46 H20         6.5975   -1.2479    4.0910 H         1 <0>         0.0768
     47 H21         4.9168   -2.2529    5.6459 H         1 <0>         0.4373
     48 H22         4.8693   -3.8041    6.2894 H         1 <0>         0.4352
     49 H23         3.9787   -5.4094    3.2688 H         1 <0>         0.4364
     50 H24         4.3192   -5.6549    4.8957 H         1 <0>         0.4359
     51 H25         3.5672    1.2169    4.1236 H         1 <0>         0.4126
     52 H26         2.1633    2.9934    5.6361 H         1 <0>         0.0961
     53 H27         1.1673    2.0502    6.7704 H         1 <0>         0.0947
     54 H28         2.9181    1.7485    6.6602 H         1 <0>         0.0901
     55 H29         4.0533   -3.2549    2.4125 H         1 <0>         0.4365
@<TRIPOS>BOND
     1    1    2 1
     2    1   29 1
     3    1   30 1
     4    1   31 1
     5    2    7 1
     6    2    3 1
     7    2   32 1
     8    3    4 1
     9    3   33 1
    10    3   34 1
    11    4    5 1
    12    4   35 1
    13    4   36 1
    14    5    6 1
    15    5   37 1
    16    5   38 1
    17    6    7 1
    18    6   39 1
    19    6   40 1
    20    7    8 am
    21    8    9 2
    22    8   10 1
    23   10   11 1
    24   10   25 1
    25   10   41 1
    26   11   12 1
    27   11   16 1
    28   11   13 1
    29   13   14 1
    30   13   42 1
    31   13   43 1
    32   14   15 1
    33   14   22 1
    34   14   44 1
    35   15   16 1
    36   15   45 1
    37   15   46 1
    38   16   17 1
    39   16   18 1
    40   18   19 2
    41   18   55 1
    42   19   20 1
    43   19   21 1
    44   20   47 1
    45   20   48 1
    46   21   49 1
    47   21   50 1
    48   22   23 2
    49   22   24 1
    50   25   26 am
    51   25   51 1
    52   26   27 2
    53   26   28 1
    54   28   52 1
    55   28   53 1
    56   28   54 1
@<TRIPOS>MOLECULE
CHEMBL294700__4
   55    56     0     0     0
SMALL
USER_CHARGES

@<TRIPOS>ATOM
      1 C1         -0.1110    2.2187    0.5716 C.3       1 <0>        -0.1342
      2 C2         -0.0059    0.7565    0.1337 C.3       1 <0>         0.1434
      3 C3          0.6332    0.6814   -1.2565 C.3       1 <0>        -0.1294
      4 C4          0.8629   -0.7850   -1.6294 C.3       1 <0>        -0.1226
      5 C5          1.8208   -1.4253   -0.6222 C.3       1 <0>        -0.1361
      6 C6          1.1952   -1.3740    0.7752 C.3       1 <0>         0.0938
      7 N1          0.8380    0.0176    1.0827 N.am      1 <0>        -0.6019
      8 C7          1.2760    0.6051    2.2137 C.2       1 <0>         0.5054
      9 O1          0.9132    1.7280    2.4936 O.2       1 <0>        -0.4990
     10 C8          2.2168   -0.1332    3.1308 C.3       1 <0>         0.1304
     11 C9          1.4089   -0.9098    4.1725 C.3       1 <0>        -0.1062
     12 H1          0.7014   -0.2499    4.6746 H         1 <0>         0.1133
     13 C10         0.6666   -2.0961    3.5086 C.3       1 <0>        -0.0947
     14 C11         0.4423   -3.0660    4.6952 C.3       1 <0>        -0.1565
     15 C12         1.7347   -2.9486    5.5293 C.3       1 <0>        -0.1133
     16 C13         2.3491   -1.5746    5.1990 C.3       1 <0>         0.1193
     17 H2          3.3416   -1.7040    4.7673 H         1 <0>         0.1030
     18 N2          2.4309   -0.7539    6.4098 N.pl3     1 <0>        -0.6373
     19 C14         3.4803   -0.8302    7.1791 C.cat     1 <0>         0.7321
     20 N3          4.5104   -1.6809    6.8544 N.pl3     1 <0>        -0.8143
     21 N4          3.5571   -0.0600    8.3153 N.pl3     1 <0>        -0.8218
     22 C15         0.2628   -4.4768    4.1965 C.2       1 <0>         0.4968
     23 O2          0.6105   -5.4173    4.8900 O.co2     1 <0>        -0.6935
     24 O3         -0.2301   -4.6775    3.0996 O.co2     1 <0>        -0.6834
     25 N5          3.0922    0.8266    3.8080 N.am      1 <0>        -0.7289
     26 C16         2.5616    1.7870    4.5906 C.2       1 <0>         0.5027
     27 O4          1.3593    1.8567    4.7342 O.2       1 <0>        -0.4966
     28 C17         3.4621    2.7743    5.2872 C.3       1 <0>        -0.1752
     29 H3          0.8889    2.6253    0.7233 H         1 <0>         0.0620
     30 H4         -0.6236    2.7931   -0.2000 H         1 <0>         0.0433
     31 H5         -0.6731    2.2794    1.5035 H         1 <0>         0.0753
     32 H6         -1.0004    0.3112    0.1055 H         1 <0>         0.0739
     33 H7         -0.0306    1.1430   -1.9875 H         1 <0>         0.0748
     34 H8          1.5874    1.2082   -1.2472 H         1 <0>         0.0638
     35 H9         -0.0884   -1.3168   -1.6145 H         1 <0>         0.0687
     36 H10         1.2950   -0.8422   -2.6285 H         1 <0>         0.0666
     37 H11         2.0023   -2.4630   -0.9017 H         1 <0>         0.0808
     38 H12         2.7639   -0.8786   -0.6188 H         1 <0>         0.0627
     39 H13         0.2994   -1.9947    0.7974 H         1 <0>         0.0875
     40 H14         1.9128   -1.7381    1.5104 H         1 <0>         0.0884
     41 H15         2.8215   -0.8281    2.5480 H         1 <0>         0.1125
     42 H16        -0.2860   -1.7704    3.0905 H         1 <0>         0.0799
     43 H17         1.2875   -2.5601    2.7423 H         1 <0>         0.0853
     44 H18        -0.4211   -2.7557    5.2837 H         1 <0>         0.0742
     45 H19         1.4995   -3.0046    6.5921 H         1 <0>         0.0714
     46 H20         2.4282   -3.7444    5.2574 H         1 <0>         0.0932
     47 H21         4.4562   -2.2243    6.0527 H         1 <0>         0.4376
     48 H22         5.2913   -1.7376    7.4269 H         1 <0>         0.4337
     49 H23         2.8303    0.5402    8.5445 H         1 <0>         0.4358
     50 H24         4.3381   -0.1168    8.8879 H         1 <0>         0.4346
     51 H25         4.0538    0.7709    3.6931 H         1 <0>         0.4020
     52 H26         4.0376    3.3276    4.5451 H         1 <0>         0.0898
     53 H27         2.8574    3.4693    5.8699 H         1 <0>         0.0942
     54 H28         4.1425    2.2403    5.9505 H         1 <0>         0.0755
     55 H29         1.7042   -0.1537    6.6389 H         1 <0>         0.4374
@<TRIPOS>BOND
     1    1    2 1
     2    1   29 1
     3    1   30 1
     4    1   31 1
     5    2    7 1
     6    2    3 1
     7    2   32 1
     8    3    4 1
     9    3   33 1
    10    3   34 1
    11    4    5 1
    12    4   35 1
    13    4   36 1
    14    5    6 1
    15    5   37 1
    16    5   38 1
    17    6    7 1
    18    6   39 1
    19    6   40 1
    20    7    8 am
    21    8    9 2
    22    8   10 1
    23   10   11 1
    24   10   25 1
    25   10   41 1
    26   11   12 1
    27   11   16 1
    28   11   13 1
    29   13   14 1
    30   13   42 1
    31   13   43 1
    32   14   15 1
    33   14   22 1
    34   14   44 1
    35   15   16 1
    36   15   45 1
    37   15   46 1
    38   16   17 1
    39   16   18 1
    40   18   19 2
    41   18   55 1
    42   19   20 1
    43   19   21 1
    44   20   47 1
    45   20   48 1
    46   21   49 1
    47   21   50 1
    48   22   23 2
    49   22   24 1
    50   25   26 am
    51   25   51 1
    52   26   27 2
    53   26   28 1
    54   28   52 1
    55   28   53 1
    56   28   54 1
@<TRIPOS>MOLECULE
CHEMBL294700__5
   55    56     0     0     0
SMALL
USER_CHARGES

@<TRIPOS>ATOM
      1 C1         -0.0800    1.7696    0.1552 C.3       1 <0>        -0.1359
      2 C2          0.4352    0.3595   -0.1395 C.3       1 <0>         0.1436
      3 C3          1.3506    0.3933   -1.3674 C.3       1 <0>        -0.1295
      4 C4          1.9719   -0.9899   -1.5738 C.3       1 <0>        -0.1229
      5 C5          2.8162   -1.3593   -0.3520 C.3       1 <0>        -0.1346
      6 C6          1.9175   -1.4130    0.8874 C.3       1 <0>         0.0966
      7 N1          1.2049   -0.1341    1.0106 N.am      1 <0>        -0.6067
      8 C7          1.2563    0.5730    2.1569 C.2       1 <0>         0.5041
      9 O1          0.5695    1.5638    2.2895 O.2       1 <0>        -0.4886
     10 C8          2.1671    0.1324    3.2738 C.3       1 <0>         0.1295
     11 C9          1.3472   -0.5872    4.3466 C.3       1 <0>        -0.0994
     12 H1          0.5932    0.0862    4.7542 H         1 <0>         0.1148
     13 C10         0.6723   -1.8331    3.7469 C.3       1 <0>        -0.1134
     14 C11         1.2131   -3.0473    4.5300 C.3       1 <0>        -0.1531
     15 C12         1.6693   -2.4524    5.8854 C.3       1 <0>        -0.1130
     16 C13         2.2745   -1.0865    5.4739 C.3       1 <0>         0.1169
     17 H2          3.2910   -1.2161    5.1024 H         1 <0>         0.1066
     18 N2          2.2552   -0.1546    6.6042 N.pl3     1 <0>        -0.6359
     19 C14         3.2720   -0.0956    7.4176 C.cat     1 <0>         0.7334
     20 N3          4.3625   -0.9079    7.2149 N.pl3     1 <0>        -0.8160
     21 N4          3.2539    0.7789    8.4782 N.pl3     1 <0>        -0.8212
     22 C15         0.1234   -4.0665    4.7414 C.2       1 <0>         0.4957
     23 O2          0.3725   -5.2555    4.6387 O.co2     1 <0>        -0.6891
     24 O3         -1.0075   -3.7020    5.0150 O.co2     1 <0>        -0.6854
     25 N5          2.8201    1.3043    3.8624 N.am      1 <0>        -0.7311
     26 C16         2.0769    2.2832    4.4153 C.2       1 <0>         0.4954
     27 O4          0.8674    2.1940    4.4256 O.2       1 <0>        -0.4847
     28 C17         2.7486    3.4887    5.0208 C.3       1 <0>        -0.1744
     29 H3          0.7486    2.3987    0.4805 H         1 <0>         0.0606
     30 H4         -0.5232    2.1905   -0.7473 H         1 <0>         0.0448
     31 H5         -0.8325    1.7244    0.9425 H         1 <0>         0.0778
     32 H6         -0.4076   -0.3056   -0.3276 H         1 <0>         0.0744
     33 H7          0.7684    0.6657   -2.2477 H         1 <0>         0.0758
     34 H8          2.1410    1.1276   -1.2118 H         1 <0>         0.0641
     35 H9          1.1803   -1.7277   -1.7047 H         1 <0>         0.0683
     36 H10         2.6045   -0.9751   -2.4614 H         1 <0>         0.0673
     37 H11         3.2772   -2.3343   -0.5097 H         1 <0>         0.0793
     38 H12         3.5928   -0.6085   -0.2060 H         1 <0>         0.0644
     39 H13         1.1970   -2.2240    0.7814 H         1 <0>         0.0820
     40 H14         2.5284   -1.5779    1.7749 H         1 <0>         0.0853
     41 H15         2.9240   -0.5455    2.8794 H         1 <0>         0.1101
     42 H16        -0.4092   -1.7648    3.8641 H         1 <0>         0.0944
     43 H17         0.9288   -1.9252    2.6915 H         1 <0>         0.0727
     44 H18         2.0579   -3.4939    4.0057 H         1 <0>         0.0740
     45 H19         0.8182   -2.3121    6.5517 H         1 <0>         0.0879
     46 H20         2.4250   -3.0856    6.3503 H         1 <0>         0.0748
     47 H21         4.3752   -1.5249    6.4665 H         1 <0>         0.4368
     48 H22         5.1192   -0.8640    7.8202 H         1 <0>         0.4338
     49 H23         2.4845    1.3520    8.6213 H         1 <0>         0.4362
     50 H24         4.0106    0.8228    9.0836 H         1 <0>         0.4347
     51 H25         3.7875    1.3757    3.8542 H         1 <0>         0.4009
     52 H26         3.3327    4.0013    4.2565 H         1 <0>         0.0884
     53 H27         1.9917    4.1666    5.4152 H         1 <0>         0.0948
     54 H28         3.4074    3.1700    5.8286 H         1 <0>         0.0765
     55 H29         1.4858    0.4185    6.7472 H         1 <0>         0.4380
@<TRIPOS>BOND
     1    1    2 1
     2    1   29 1
     3    1   30 1
     4    1   31 1
     5    2    7 1
     6    2    3 1
     7    2   32 1
     8    3    4 1
     9    3   33 1
    10    3   34 1
    11    4    5 1
    12    4   35 1
    13    4   36 1
    14    5    6 1
    15    5   37 1
    16    5   38 1
    17    6    7 1
    18    6   39 1
    19    6   40 1
    20    7    8 am
    21    8    9 2
    22    8   10 1
    23   10   11 1
    24   10   25 1
    25   10   41 1
    26   11   12 1
    27   11   16 1
    28   11   13 1
    29   13   14 1
    30   13   42 1
    31   13   43 1
    32   14   15 1
    33   14   22 1
    34   14   44 1
    35   15   16 1
    36   15   45 1
    37   15   46 1
    38   16   17 1
    39   16   18 1
    40   18   19 2
    41   18   55 1
    42   19   20 1
    43   19   21 1
    44   20   47 1
    45   20   48 1
    46   21   49 1
    47   21   50 1
    48   22   23 2
    49   22   24 1
    50   25   26 am
    51   25   51 1
    52   26   27 2
    53   26   28 1
    54   28   52 1
    55   28   53 1
    56   28   54 1
@<TRIPOS>MOLECULE
CHEMBL294700__6
   55    56     0     0     0
SMALL
USER_CHARGES

@<TRIPOS>ATOM
      1 C1          0.1907    2.2285    0.3375 C.3       1 <0>        -0.1419
      2 C2          0.0892    0.7278    0.0574 C.3       1 <0>         0.1454
      3 C3          0.6997    0.4188   -1.3133 C.3       1 <0>        -0.1337
      4 C4          0.7216   -1.0964   -1.5276 C.3       1 <0>        -0.1208
      5 C5          1.5908   -1.7528   -0.4526 C.3       1 <0>        -0.1377
      6 C6          0.9904   -1.4684    0.9278 C.3       1 <0>         0.1061
      7 N1          0.8313   -0.0162    1.0842 N.am      1 <0>        -0.6074
      8 C7          1.3562    0.6213    2.1494 C.2       1 <0>         0.5091
      9 O1          1.1362    1.8020    2.3184 O.2       1 <0>        -0.5026
     10 C8          2.2164   -0.1329    3.1303 C.3       1 <0>         0.1318
     11 C9          3.6313   -0.2731    2.5652 C.3       1 <0>        -0.1044
     12 H1          3.6091   -0.7954    1.6087 H         1 <0>         0.1052
     13 C10         4.2925    1.1187    2.4077 C.3       1 <0>        -0.0847
     14 C11         5.8045    0.7839    2.4357 C.3       1 <0>        -0.1576
     15 C12         5.9235   -0.3412    3.4844 C.3       1 <0>        -0.1137
     16 C13         4.5409   -1.0164    3.5652 C.3       1 <0>         0.1106
     17 H2          4.1395   -0.9247    4.5745 H         1 <0>         0.1087
     18 N2          4.6464   -2.4294    3.1931 N.pl3     1 <0>        -0.6450
     19 C14         4.9289   -3.3227    4.0992 C.cat     1 <0>         0.7376
     20 N3          5.1278   -2.9389    5.4043 N.pl3     1 <0>        -0.8115
     21 N4          5.0280   -4.6487    3.7500 N.pl3     1 <0>        -0.8193
     22 C15         6.6036    1.9886    2.8616 C.2       1 <0>         0.4949
     23 O2          7.6561    1.8417    3.4593 O.co2     1 <0>        -0.6932
     24 O3          6.1977    3.1100    2.6084 O.co2     1 <0>        -0.6804
     25 N5          2.2673    0.5988    4.3985 N.am      1 <0>        -0.7160
     26 C16         1.2472    0.5018    5.2739 C.2       1 <0>         0.5189
     27 O4          0.3302   -0.2610    5.0544 O.2       1 <0>        -0.5450
     28 C17         1.2461    1.3409    6.5257 C.3       1 <0>        -0.1767
     29 H3          1.2394    2.5107    0.4303 H         1 <0>         0.0685
     30 H4         -0.2634    2.7830   -0.4838 H         1 <0>         0.0474
     31 H5         -0.3316    2.4610    1.2655 H         1 <0>         0.0770
     32 H6         -0.9574    0.4236    0.0705 H         1 <0>         0.0711
     33 H7          0.0995    0.8879   -2.0929 H         1 <0>         0.0776
     34 H8          1.7175    0.8068   -1.3540 H         1 <0>         0.0702
     35 H9         -0.2939   -1.4871   -1.4621 H         1 <0>         0.0654
     36 H10         1.1329   -1.3179   -2.5124 H         1 <0>         0.0688
     37 H11         1.6249   -2.8294   -0.6197 H         1 <0>         0.0756
     38 H12         2.6002   -1.3444   -0.5015 H         1 <0>         0.0684
     39 H13         0.0178   -1.9536    1.0102 H         1 <0>         0.0730
     40 H14         1.6574   -1.8484    1.7017 H         1 <0>         0.0737
     41 H15         1.7927   -1.1229    3.2988 H         1 <0>         0.1050
     42 H16         4.0149    1.5728    1.4564 H         1 <0>         0.0814
     43 H17         4.0255    1.7697    3.2402 H         1 <0>         0.0820
     44 H18         6.1354    0.4314    1.4588 H         1 <0>         0.0756
     45 H19         6.6736   -1.0669    3.1699 H         1 <0>         0.0746
     46 H20         6.1929    0.0787    4.4535 H         1 <0>         0.0947
     47 H21         5.0579   -2.0033    5.6508 H         1 <0>         0.4382
     48 H22         5.3380   -3.6036    6.0787 H         1 <0>         0.4352
     49 H23         4.8877   -4.9195    2.8292 H         1 <0>         0.4357
     50 H24         5.2382   -5.3135    4.4244 H         1 <0>         0.4359
     51 H25         3.0352    1.1532    4.6080 H         1 <0>         0.4124
     52 H26         1.2615    2.3967    6.2553 H         1 <0>         0.0969
     53 H27         0.3482    1.1274    7.1055 H         1 <0>         0.0946
     54 H28         2.1279    1.1056    7.1216 H         1 <0>         0.0896
     55 H29         4.5061   -2.7002    2.2723 H         1 <0>         0.4347
@<TRIPOS>BOND
     1    1    2 1
     2    1   29 1
     3    1   30 1
     4    1   31 1
     5    2    7 1
     6    2    3 1
     7    2   32 1
     8    3    4 1
     9    3   33 1
    10    3   34 1
    11    4    5 1
    12    4   35 1
    13    4   36 1
    14    5    6 1
    15    5   37 1
    16    5   38 1
    17    6    7 1
    18    6   39 1
    19    6   40 1
    20    7    8 am
    21    8    9 2
    22    8   10 1
    23   10   11 1
    24   10   25 1
    25   10   41 1
    26   11   12 1
    27   11   16 1
    28   11   13 1
    29   13   14 1
    30   13   42 1
    31   13   43 1
    32   14   15 1
    33   14   22 1
    34   14   44 1
    35   15   16 1
    36   15   45 1
    37   15   46 1
    38   16   17 1
    39   16   18 1
    40   18   19 2
    41   18   55 1
    42   19   20 1
    43   19   21 1
    44   20   47 1
    45   20   48 1
    46   21   49 1
    47   21   50 1
    48   22   23 2
    49   22   24 1
    50   25   26 am
    51   25   51 1
    52   26   27 2
    53   26   28 1
    54   28   52 1
    55   28   53 1
    56   28   54 1
@<TRIPOS>MOLECULE
CHEMBL294700__7
   55    56     0     0     0
SMALL
USER_CHARGES

@<TRIPOS>ATOM
      1 C1          0.1222    1.9971    0.2050 C.3       1 <0>        -0.1415
      2 C2          0.0561    0.4795    0.0217 C.3       1 <0>         0.1453
      3 C3          0.6667    0.0986   -1.3307 C.3       1 <0>        -0.1344
      4 C4          0.7246   -1.4262   -1.4483 C.3       1 <0>        -0.1204
      5 C5          1.6154   -1.9916   -0.3397 C.3       1 <0>        -0.1388
      6 C6          1.0156   -1.6343    1.0239 C.3       1 <0>         0.1061
      7 N1          0.8217   -0.1793    1.0887 N.am      1 <0>        -0.6061
      8 C7          1.3364    0.5374    2.1075 C.2       1 <0>         0.5099
      9 O1          1.0911    1.7214    2.2007 O.2       1 <0>        -0.5067
     10 C8          2.2167   -0.1326    3.1308 C.3       1 <0>         0.1297
     11 C9          3.6322   -0.2785    2.5687 C.3       1 <0>        -0.0952
     12 H1          3.6041   -0.8194    1.6228 H         1 <0>         0.1035
     13 C10         4.2636    1.1097    2.3636 C.3       1 <0>        -0.1108
     14 C11         5.5207    1.1583    3.2565 C.3       1 <0>        -0.1546
     15 C12         5.9056   -0.3292    3.4518 C.3       1 <0>        -0.1124
     16 C13         4.5273   -1.0261    3.5785 C.3       1 <0>         0.1096
     17 H2          4.1359   -0.9160    4.5898 H         1 <0>         0.1126
     18 N2          4.6329   -2.4425    3.2196 N.pl3     1 <0>        -0.6438
     19 C14         4.9032   -3.3287    4.1364 C.cat     1 <0>         0.7382
     20 N3          5.0893   -2.9343    5.4402 N.pl3     1 <0>        -0.8132
     21 N4          5.0023   -4.6580    3.7995 N.pl3     1 <0>        -0.8185
     22 C15         6.6316    1.9039    2.5630 C.2       1 <0>         0.4970
     23 O2          7.3438    2.6641    3.1965 O.co2     1 <0>        -0.6863
     24 O3          6.8181    1.7470    1.3684 O.co2     1 <0>        -0.6863
     25 N5          2.2563    0.6810    4.3485 N.am      1 <0>        -0.7152
     26 C16         1.2444    0.6149    5.2363 C.2       1 <0>         0.5183
     27 O4          0.3461   -0.1835    5.0736 O.2       1 <0>        -0.5448
     28 C17         1.2291    1.5331    6.4311 C.3       1 <0>        -0.1766
     29 H3          1.1640    2.3095    0.2757 H         1 <0>         0.0684
     30 H4         -0.3470    2.4869   -0.6482 H         1 <0>         0.0476
     31 H5         -0.4035    2.2759    1.1183 H         1 <0>         0.0762
     32 H6         -0.9827    0.1516    0.0614 H         1 <0>         0.0713
     33 H7          0.0510    0.5023   -2.1345 H         1 <0>         0.0778
     34 H8          1.6744    0.5076   -1.4030 H         1 <0>         0.0714
     35 H9         -0.2805   -1.8364   -1.3511 H         1 <0>         0.0651
     36 H10         1.1360   -1.7001   -2.4198 H         1 <0>         0.0695
     37 H11         1.6751   -3.0755   -0.4381 H         1 <0>         0.0758
     38 H12         2.6142   -1.5628   -0.4214 H         1 <0>         0.0700
     39 H13         0.0557   -2.1365    1.1437 H         1 <0>         0.0733
     40 H14         1.6958   -1.9479    1.8158 H         1 <0>         0.0730
     41 H15         1.8155   -1.1186    3.3655 H         1 <0>         0.1050
     42 H16         4.5427    1.2422    1.3183 H         1 <0>         0.0970
     43 H17         3.5615    1.8873    2.6645 H         1 <0>         0.0782
     44 H18         5.2896    1.6217    4.2156 H         1 <0>         0.0739
     45 H19         6.4493   -0.7046    2.5849 H         1 <0>         0.0904
     46 H20         6.4902   -0.4605    4.3624 H         1 <0>         0.0771
     47 H21         5.0194   -1.9964    5.6778 H         1 <0>         0.4374
     48 H22         5.2905   -3.5938    6.1224 H         1 <0>         0.4352
     49 H23         4.8710   -4.9363    2.8796 H         1 <0>         0.4364
     50 H24         5.2035   -5.3175    4.4818 H         1 <0>         0.4360
     51 H25         3.0108    1.2672    4.5158 H         1 <0>         0.4122
     52 H26         1.2155    2.5693    6.0930 H         1 <0>         0.0961
     53 H27         0.3405    1.3348    7.0304 H         1 <0>         0.0947
     54 H28         2.1203    1.3595    7.0342 H         1 <0>         0.0898
     55 H29         4.5016   -2.7208    2.2997 H         1 <0>         0.4363
@<TRIPOS>BOND
     1    1    2 1
     2    1   29 1
     3    1   30 1
     4    1   31 1
     5    2    7 1
     6    2    3 1
     7    2   32 1
     8    3    4 1
     9    3   33 1
    10    3   34 1
    11    4    5 1
    12    4   35 1
    13    4   36 1
    14    5    6 1
    15    5   37 1
    16    5   38 1
    17    6    7 1
    18    6   39 1
    19    6   40 1
    20    7    8 am
    21    8    9 2
    22    8   10 1
    23   10   11 1
    24   10   25 1
    25   10   41 1
    26   11   12 1
    27   11   16 1
    28   11   13 1
    29   13   14 1
    30   13   42 1
    31   13   43 1
    32   14   15 1
    33   14   22 1
    34   14   44 1
    35   15   16 1
    36   15   45 1
    37   15   46 1
    38   16   17 1
    39   16   18 1
    40   18   19 2
    41   18   55 1
    42   19   20 1
    43   19   21 1
    44   20   47 1
    45   20   48 1
    46   21   49 1
    47   21   50 1
    48   22   23 2
    49   22   24 1
    50   25   26 am
    51   25   51 1
    52   26   27 2
    53   26   28 1
    54   28   52 1
    55   28   53 1
    56   28   54 1
@<TRIPOS>MOLECULE
CHEMBL332608
   51    51     0     0     0
SMALL
USER_CHARGES

@<TRIPOS>ATOM
      1 C1         -0.5382   -3.1610    0.8367 C.3       1 <0>        -0.1529
      2 C2         -1.8875   -2.5014    0.5448 C.3       1 <0>        -0.1221
      3 C3         -1.7030   -0.9860    0.4432 C.3       1 <0>        -0.0979
      4 C4         -3.0282   -0.3369    0.0391 C.3       1 <0>        -0.1486
      5 C5         -2.7983    1.1447   -0.2659 C.3       1 <0>        -0.1662
      6 C6         -1.2575   -0.4345    1.7990 C.3       1 <0>         0.1598
      7 C7         -2.3173   -0.7575    2.8542 C.3       1 <0>        -0.1013
      8 H1         -2.6510   -1.7893    2.7442 H         1 <0>         0.1145
      9 C8         -1.7417   -0.5371    4.2641 C.3       1 <0>         0.1242
     10 H2         -0.7074   -0.2000    4.1966 H         1 <0>         0.0969
     11 C9         -2.6098    0.5509    4.9294 C.3       1 <0>        -0.1155
     12 C10        -3.2246    1.3272    3.7384 C.3       1 <0>        -0.1927
     13 H3         -2.5099    2.0443    3.3346 H         1 <0>         0.0735
     14 C11        -3.5156    0.2034    2.7111 C.3       1 <0>         0.0900
     15 H4         -3.5593    0.6110    1.7011 H         1 <0>         0.1017
     16 O1         -4.7356   -0.4667    3.0345 O.3       1 <0>        -0.5540
     17 C12        -4.4972    2.0200    4.1524 C.2       1 <0>         0.4956
     18 O2         -4.7769    3.1111    3.6858 O.co2     1 <0>        -0.6864
     19 O3         -5.2472    1.4894    4.9540 O.co2     1 <0>        -0.6769
     20 N1         -1.8147   -1.7802    5.0359 N.pl3     1 <0>        -0.6742
     21 C13        -0.9473   -1.9941    6.0717 C.cat     1 <0>         0.7385
     22 N2         -1.0136   -3.1242    6.7734 N.pl3     1 <0>        -0.8000
     23 N3         -0.0363   -1.0721    6.3787 N.pl3     1 <0>        -0.7970
     24 N4         -1.0897    1.0178    1.7042 N.am      1 <0>        -0.7303
     25 C14         0.0572    1.5333    1.2190 C.2       1 <0>         0.5110
     26 O4          0.9198    0.7963    0.7905 O.2       1 <0>        -0.5473
     27 C15         0.2677    3.0255    1.2090 C.3       1 <0>        -0.1791
     28 H5         -0.6802   -4.2328    0.9756 H         1 <0>         0.0531
     29 H6          0.1387   -2.9896   -0.0002 H         1 <0>         0.0583
     30 H7         -0.1118   -2.7306    1.7429 H         1 <0>         0.0486
     31 H8         -2.2825   -2.8833   -0.3966 H         1 <0>         0.0695
     32 H9         -2.5852   -2.7293    1.3506 H         1 <0>         0.0655
     33 H10        -0.9449   -0.7618   -0.3071 H         1 <0>         0.0847
     34 H11        -3.4206   -0.8338   -0.8482 H         1 <0>         0.0651
     35 H12        -3.7438   -0.4330    0.8557 H         1 <0>         0.0914
     36 H13        -2.5681    1.6744    0.6585 H         1 <0>         0.0646
     37 H14        -1.9649    1.2475   -0.9609 H         1 <0>         0.0545
     38 H15        -3.6982    1.5676   -0.7125 H         1 <0>         0.0563
     39 H16        -0.3100   -0.8919    2.0838 H         1 <0>         0.0934
     40 H17        -3.3943    0.0961    5.5341 H         1 <0>         0.1016
     41 H18        -1.9927    1.2120    5.5379 H         1 <0>         0.0662
     42 H19        -5.5290    0.0632    2.8775 H         1 <0>         0.3937
     43 H20        -2.4781   -2.4516    4.8124 H         1 <0>         0.4351
     44 H21        -1.6771   -3.7957    6.5499 H         1 <0>         0.4391
     45 H22         0.0120   -0.2490    5.8676 H         1 <0>         0.4388
     46 H23         0.5788   -1.2238    7.1132 H         1 <0>         0.4363
     47 H24        -1.8039    1.6083    1.9905 H         1 <0>         0.4112
     48 H25        -0.6084    3.5189    1.6298 H         1 <0>         0.0800
     49 H26         1.1456    3.2726    1.8060 H         1 <0>         0.0957
     50 H27         0.4182    3.3643    0.1840 H         1 <0>         0.0973
     51 H28        -0.3985   -3.2759    7.5080 H         1 <0>         0.4367
@<TRIPOS>BOND
     1    1    2 1
     2    1   28 1
     3    1   29 1
     4    1   30 1
     5    2    3 1
     6    2   31 1
     7    2   32 1
     8    3    4 1
     9    3    6 1
    10    3   33 1
    11    4    5 1
    12    4   34 1
    13    4   35 1
    14    5   36 1
    15    5   37 1
    16    5   38 1
    17    6    7 1
    18    6   24 1
    19    6   39 1
    20    7    8 1
    21    7   14 1
    22    7    9 1
    23    9   10 1
    24    9   11 1
    25    9   20 1
    26   11   12 1
    27   11   40 1
    28   11   41 1
    29   12   13 1
    30   12   14 1
    31   12   17 1
    32   14   15 1
    33   14   16 1
    34   16   42 1
    35   17   18 2
    36   17   19 1
    37   20   21 1
    38   20   43 1
    39   21   22 2
    40   21   23 1
    41   22   44 1
    42   22   51 1
    43   23   45 1
    44   23   46 1
    45   24   25 am
    46   24   47 1
    47   25   26 2
    48   25   27 1
    49   27   48 1
    50   27   49 1
    51   27   50 1
@<TRIPOS>MOLECULE
CHEMBL332608__1
   51    51     0     0     0
SMALL
USER_CHARGES

@<TRIPOS>ATOM
      1 C1          0.1640   -2.0195    0.4426 C.3       1 <0>        -0.1534
      2 C2         -0.9421   -1.6022   -0.5286 C.3       1 <0>        -0.1108
      3 C3         -1.5708   -0.2910   -0.0526 C.3       1 <0>        -0.1068
      4 C4         -2.5563    0.2147   -1.1080 C.3       1 <0>        -0.1166
      5 C5         -2.6773    1.7365   -1.0051 C.3       1 <0>        -0.1773
      6 C6         -2.3119   -0.5294    1.2645 C.3       1 <0>         0.1519
      7 C7         -2.8316    0.8039    1.8058 C.3       1 <0>        -0.1025
      8 H1         -3.5592    1.2291    1.1144 H         1 <0>         0.1104
      9 C8         -3.4762    0.5966    3.1876 C.3       1 <0>         0.1248
     10 H2         -3.4188   -0.4539    3.4725 H         1 <0>         0.0972
     11 C9         -2.6724    1.4588    4.1827 C.3       1 <0>        -0.1161
     12 C10        -1.2898    1.6306    3.5059 C.3       1 <0>        -0.1890
     13 H3         -0.6709    0.7471    3.6621 H         1 <0>         0.0782
     14 C11        -1.6588    1.7854    2.0083 C.3       1 <0>         0.1281
     15 H4         -0.8154    1.5075    1.3762 H         1 <0>         0.0705
     16 O1         -2.0735    3.1244    1.7307 O.3       1 <0>        -0.5553
     17 C12        -0.5940    2.8651    4.0186 C.2       1 <0>         0.4958
     18 O2          0.6173    2.8690    4.1571 O.co2     1 <0>        -0.6873
     19 O3         -1.2423    3.8600    4.2948 O.co2     1 <0>        -0.6809
     20 N1         -4.8745    1.0328    3.1596 N.pl3     1 <0>        -0.6747
     21 C13        -5.7735    0.5049    4.0452 C.cat     1 <0>         0.7376
     22 N2         -7.0448    0.9015    4.0197 N.pl3     1 <0>        -0.8010
     23 N3         -5.3776   -0.4057    4.9329 N.pl3     1 <0>        -0.7964
     24 N4         -3.4396   -1.4355    1.0333 N.am      1 <0>        -0.7270
     25 C14        -3.2835   -2.7631    1.2053 C.2       1 <0>         0.5068
     26 O4         -2.2410   -3.1991    1.6456 O.2       1 <0>        -0.5253
     27 C15        -4.4045   -3.7057    0.8505 C.3       1 <0>        -0.1734
     28 H5          0.5500   -2.9975    0.1551 H         1 <0>         0.0506
     29 H6          0.9706   -1.2870    0.4112 H         1 <0>         0.0506
     30 H7         -0.2405   -2.0713    1.4534 H         1 <0>         0.0670
     31 H8         -0.5186   -1.4620   -1.5231 H         1 <0>         0.0598
     32 H9         -1.7058   -2.3791   -0.5651 H         1 <0>         0.0573
     33 H10        -0.7886    0.4526    0.1000 H         1 <0>         0.0909
     34 H11        -2.1956   -0.0548   -2.1007 H         1 <0>         0.0630
     35 H12        -3.5328   -0.2396   -0.9405 H         1 <0>         0.0557
     36 H13        -2.9434    2.0116    0.0155 H         1 <0>         0.0834
     37 H14        -1.7244    2.1954   -1.2684 H         1 <0>         0.0566
     38 H15        -3.4505    2.0865   -1.6890 H         1 <0>         0.0487
     39 H16        -1.6305   -0.9749    1.9893 H         1 <0>         0.1086
     40 H17        -3.1520    2.4277    4.3220 H         1 <0>         0.0999
     41 H18        -2.5684    0.9428    5.1372 H         1 <0>         0.0647
     42 H19        -1.3567    3.7727    1.7624 H         1 <0>         0.3948
     43 H20        -5.1628    1.6960    2.5131 H         1 <0>         0.4341
     44 H21        -7.3331    1.5647    3.3732 H         1 <0>         0.4387
     45 H22        -4.4517   -0.6945    4.9515 H         1 <0>         0.4395
     46 H23        -6.0151   -0.7801    5.5609 H         1 <0>         0.4360
     47 H24        -4.2985   -1.0800    0.7564 H         1 <0>         0.3947
     48 H25        -5.2535   -3.1352    0.4739 H         1 <0>         0.0715
     49 H26        -4.0651   -4.4014    0.0831 H         1 <0>         0.0976
     50 H27        -4.7058   -4.2624    1.7380 H         1 <0>         0.0926
     51 H28        -7.6822    0.5272    4.6477 H         1 <0>         0.4364
@<TRIPOS>BOND
     1    1    2 1
     2    1   28 1
     3    1   29 1
     4    1   30 1
     5    2    3 1
     6    2   31 1
     7    2   32 1
     8    3    4 1
     9    3    6 1
    10    3   33 1
    11    4    5 1
    12    4   34 1
    13    4   35 1
    14    5   36 1
    15    5   37 1
    16    5   38 1
    17    6    7 1
    18    6   24 1
    19    6   39 1
    20    7    8 1
    21    7   14 1
    22    7    9 1
    23    9   10 1
    24    9   11 1
    25    9   20 1
    26   11   12 1
    27   11   40 1
    28   11   41 1
    29   12   13 1
    30   12   14 1
    31   12   17 1
    32   14   15 1
    33   14   16 1
    34   16   42 1
    35   17   18 2
    36   17   19 1
    37   20   21 1
    38   20   43 1
    39   21   22 2
    40   21   23 1
    41   22   44 1
    42   22   51 1
    43   23   45 1
    44   23   46 1
    45   24   25 am
    46   24   47 1
    47   25   26 2
    48   25   27 1
    49   27   48 1
    50   27   49 1
    51   27   50 1
@<TRIPOS>MOLECULE
CHEMBL119140
   47    47     0     0     0
SMALL
USER_CHARGES

@<TRIPOS>ATOM
      1 C1          4.0446    1.7516    2.4015 C.3       1 <0>        -0.1557
      2 C2          4.1547    0.2325    2.2566 C.3       1 <0>        -0.1205
      3 C3          2.7725   -0.3985    2.4361 C.3       1 <0>        -0.1184
      4 C4          2.8826   -1.9176    2.2912 C.3       1 <0>        -0.1279
      5 C5          1.5004   -2.5486    2.4707 C.3       1 <0>         0.1401
      6 C6          1.6291   -4.0730    2.4501 C.3       1 <0>        -0.1047
      7 H1          2.0942   -4.3957    1.5187 H         1 <0>         0.0865
      8 C7          0.2414   -4.7212    2.5985 C.3       1 <0>        -0.0901
      9 C8          0.2861   -5.5682    3.8871 C.3       1 <0>        -0.1575
     10 C9          1.7914   -5.8716    4.0901 C.3       1 <0>        -0.1044
     11 C10         2.4697   -4.5486    3.6530 C.3       1 <0>         0.1093
     12 H2          2.4310   -3.8158    4.4590 H         1 <0>         0.1100
     13 N1          3.8557   -4.7920    3.2457 N.pl3     1 <0>        -0.6402
     14 C11         4.8154   -4.7207    4.1248 C.cat     1 <0>         0.7359
     15 N2          4.5270   -4.4170    5.4343 N.pl3     1 <0>        -0.8142
     16 N3          6.1162   -4.9491    3.7426 N.pl3     1 <0>        -0.8211
     17 C12        -0.4898   -6.8471    3.7048 C.2       1 <0>         0.4965
     18 O1         -0.1625   -7.8509    4.3146 O.co2     1 <0>        -0.6945
     19 O2         -1.4448   -6.8781    2.9475 O.co2     1 <0>        -0.6850
     20 N4          0.6217   -2.1180    1.3804 N.am      1 <0>        -0.7227
     21 C13        -0.4683   -1.3719    1.6480 C.2       1 <0>         0.5169
     22 O3         -0.6724   -0.9797    2.7774 O.2       1 <0>        -0.5413
     23 C14        -1.4335   -1.0249    0.5439 C.3       1 <0>        -0.1740
     24 H3          3.6598    1.9952    3.3918 H         1 <0>         0.0549
     25 H4          5.0293    2.2011    2.2737 H         1 <0>         0.0542
     26 H5          3.3662    2.1408    1.6423 H         1 <0>         0.0555
     27 H6          4.5395   -0.0111    1.2663 H         1 <0>         0.0589
     28 H7          4.8331   -0.1567    3.0159 H         1 <0>         0.0543
     29 H8          2.3877   -0.1549    3.4264 H         1 <0>         0.0648
     30 H9          2.0941   -0.0093    1.6769 H         1 <0>         0.0659
     31 H10         3.2674   -2.1612    1.3009 H         1 <0>         0.0664
     32 H11         3.5610   -2.3068    3.0504 H         1 <0>         0.0588
     33 H12         1.0777   -2.2325    3.4243 H         1 <0>         0.1066
     34 H13        -0.5237   -3.9497    2.6851 H         1 <0>         0.0696
     35 H14         0.0335   -5.3591    1.7394 H         1 <0>         0.0810
     36 H15        -0.1057   -5.0001    4.7308 H         1 <0>         0.0759
     37 H16         2.0041   -6.0874    5.1372 H         1 <0>         0.0760
     38 H17         2.1086   -6.6967    3.4524 H         1 <0>         0.0834
     39 H18         3.6093   -4.2558    5.7040 H         1 <0>         0.4384
     40 H19         5.2412   -4.3639    6.0885 H         1 <0>         0.4342
     41 H20         6.3197   -5.1634    2.8187 H         1 <0>         0.4354
     42 H21         6.8304   -4.8960    4.3968 H         1 <0>         0.4349
     43 H22         0.8245   -2.3698    0.4658 H         1 <0>         0.4020
     44 H23        -1.0866   -1.4615   -0.3926 H         1 <0>         0.0763
     45 H24        -2.4199   -1.4207    0.7859 H         1 <0>         0.0998
     46 H25        -1.4923    0.0585    0.4399 H         1 <0>         0.0940
     47 H26         4.0593   -5.0063    2.3219 H         1 <0>         0.4354
@<TRIPOS>BOND
     1    1    2 1
     2    1   24 1
     3    1   25 1
     4    1   26 1
     5    2    3 1
     6    2   27 1
     7    2   28 1
     8    3    4 1
     9    3   29 1
    10    3   30 1
    11    4    5 1
    12    4   31 1
    13    4   32 1
    14    5    6 1
    15    5   20 1
    16    5   33 1
    17    6    7 1
    18    6   11 1
    19    6    8 1
    20    8    9 1
    21    8   34 1
    22    8   35 1
    23    9   10 1
    24    9   17 1
    25    9   36 1
    26   10   11 1
    27   10   37 1
    28   10   38 1
    29   11   12 1
    30   11   13 1
    31   13   14 2
    32   13   47 1
    33   14   15 1
    34   14   16 1
    35   15   39 1
    36   15   40 1
    37   16   41 1
    38   16   42 1
    39   17   18 2
    40   17   19 1
    41   20   21 am
    42   20   43 1
    43   21   22 2
    44   21   23 1
    45   23   44 1
    46   23   45 1
    47   23   46 1
@<TRIPOS>MOLECULE
CHEMBL119140__1
   47    47     0     0     0
SMALL
USER_CHARGES

@<TRIPOS>ATOM
      1 C1          3.4670    2.0475    2.3903 C.3       1 <0>        -0.1555
      2 C2          3.7651    0.5594    2.1966 C.3       1 <0>        -0.1210
      3 C3          2.4754   -0.2457    2.3684 C.3       1 <0>        -0.1188
      4 C4          2.7735   -1.7338    2.1746 C.3       1 <0>        -0.1281
      5 C5          1.4838   -2.5388    2.3464 C.3       1 <0>         0.1424
      6 C6          1.8025   -4.0336    2.2767 C.3       1 <0>        -0.1036
      7 H1          2.3092   -4.2637    1.3394 H         1 <0>         0.0848
      8 C7          0.5030   -4.8570    2.3908 C.3       1 <0>        -0.0975
      9 C8          0.9095   -6.0942    3.2293 C.3       1 <0>        -0.1568
     10 C9          1.8934   -5.4965    4.2655 C.3       1 <0>        -0.1186
     11 C10         2.6877   -4.4400    3.4680 C.3       1 <0>         0.1162
     12 H2          2.8901   -3.5723    4.0958 H         1 <0>         0.1068
     13 N1          3.9455   -5.0154    2.9853 N.pl3     1 <0>        -0.6392
     14 C11         5.0098   -4.9786    3.7369 C.cat     1 <0>         0.7354
     15 N2          4.9519   -4.3999    4.9827 N.pl3     1 <0>        -0.8149
     16 N3          6.1902   -5.5186    3.2840 N.pl3     1 <0>        -0.8207
     17 C12        -0.2913   -6.6920    3.9161 C.2       1 <0>         0.4940
     18 O1         -0.4141   -7.9031    3.9849 O.co2     1 <0>        -0.6933
     19 O2         -1.1401   -5.9646    4.4028 O.co2     1 <0>        -0.6832
     20 N4          0.5441   -2.1895    1.2781 N.am      1 <0>        -0.7236
     21 C13        -0.6220   -1.5838    1.5778 C.2       1 <0>         0.5154
     22 O3         -0.8538   -1.2453    2.7191 O.2       1 <0>        -0.5344
     23 C14        -1.6380   -1.3273    0.4947 C.3       1 <0>        -0.1731
     24 H3          3.0674    2.2107    3.3912 H         1 <0>         0.0554
     25 H4          4.3858    2.6210    2.2679 H         1 <0>         0.0538
     26 H5          2.7354    2.3709    1.6498 H         1 <0>         0.0550
     27 H6          4.1647    0.3962    1.1957 H         1 <0>         0.0581
     28 H7          4.4966    0.2360    2.9371 H         1 <0>         0.0557
     29 H8          2.0758   -0.0824    3.3692 H         1 <0>         0.0663
     30 H9          1.7438    0.0778    1.6279 H         1 <0>         0.0654
     31 H10         3.1731   -1.8970    1.1738 H         1 <0>         0.0657
     32 H11         3.5050   -2.0572    2.9151 H         1 <0>         0.0609
     33 H12         1.0370   -2.3073    3.3133 H         1 <0>         0.1101
     34 H13        -0.2679   -4.2836    2.9058 H         1 <0>         0.0914
     35 H14         0.1569   -5.1623    1.4034 H         1 <0>         0.0661
     36 H15         1.4086   -6.8362    2.6060 H         1 <0>         0.0667
     37 H16         1.3472   -5.0264    5.0833 H         1 <0>         0.0992
     38 H17         2.5621   -6.2685    4.6462 H         1 <0>         0.0705
     39 H18         4.1190   -4.0189    5.3023 H         1 <0>         0.4382
     40 H19         5.7439   -4.3726    5.5420 H         1 <0>         0.4342
     41 H20         6.2310   -5.9269    2.4051 H         1 <0>         0.4358
     42 H21         6.9822   -5.4913    3.8434 H         1 <0>         0.4350
     43 H22         0.7612   -2.3941    0.3552 H         1 <0>         0.4001
     44 H23        -1.2562   -1.6977   -0.4567 H         1 <0>         0.0746
     45 H24        -2.5671   -1.8424    0.7386 H         1 <0>         0.0995
     46 H25        -1.8255   -0.2563    0.4187 H         1 <0>         0.0939
     47 H26         3.9864   -5.4237    2.1064 H         1 <0>         0.4359
@<TRIPOS>BOND
     1    1    2 1
     2    1   24 1
     3    1   25 1
     4    1   26 1
     5    2    3 1
     6    2   27 1
     7    2   28 1
     8    3    4 1
     9    3   29 1
    10    3   30 1
    11    4    5 1
    12    4   31 1
    13    4   32 1
    14    5    6 1
    15    5   20 1
    16    5   33 1
    17    6    7 1
    18    6   11 1
    19    6    8 1
    20    8    9 1
    21    8   34 1
    22    8   35 1
    23    9   10 1
    24    9   17 1
    25    9   36 1
    26   10   11 1
    27   10   37 1
    28   10   38 1
    29   11   12 1
    30   11   13 1
    31   13   14 2
    32   13   47 1
    33   14   15 1
    34   14   16 1
    35   15   39 1
    36   15   40 1
    37   16   41 1
    38   16   42 1
    39   17   18 2
    40   17   19 1
    41   20   21 am
    42   20   43 1
    43   21   22 2
    44   21   23 1
    45   23   44 1
    46   23   45 1
    47   23   46 1
@<TRIPOS>MOLECULE
CHEMBL119140__2
   47    47     0     0     0
SMALL
USER_CHARGES

@<TRIPOS>ATOM
      1 C1         -0.0187    1.5258    0.0104 C.3       1 <0>        -0.1523
      2 C2          0.0021   -0.0041    0.0020 C.3       1 <0>        -0.1265
      3 C3          0.7421   -0.5109    1.2415 C.3       1 <0>        -0.1127
      4 C4          0.7628   -2.0407    1.2331 C.3       1 <0>        -0.1440
      5 C5          1.5028   -2.5476    2.4727 C.3       1 <0>         0.1527
      6 C6          1.4162   -4.0741    2.5297 C.3       1 <0>        -0.1098
      7 H1          1.8597   -4.5067    1.6330 H         1 <0>         0.1058
      8 C7         -0.0529   -4.5142    2.6562 C.3       1 <0>        -0.0920
      9 C8         -0.1676   -5.2903    3.9845 C.3       1 <0>        -0.1562
     10 C9          1.2730   -5.7891    4.2586 C.3       1 <0>        -0.1052
     11 C10         2.1439   -4.5981    3.7849 C.3       1 <0>         0.1094
     12 H2          2.1840   -3.8257    4.5530 H         1 <0>         0.1046
     13 N1          3.4938   -5.0529    3.4425 N.pl3     1 <0>        -0.6353
     14 C11         4.4264   -5.0697    4.3529 C.cat     1 <0>         0.7326
     15 N2          4.1434   -4.6604    5.6345 N.pl3     1 <0>        -0.8156
     16 N3          5.6932   -5.4965    4.0316 N.pl3     1 <0>        -0.8228
     17 C12        -1.1099   -6.4567    3.8341 C.2       1 <0>         0.4954
     18 O1         -0.9462   -7.4629    4.5030 O.co2     1 <0>        -0.6951
     19 O2         -2.0360   -6.3943    3.0435 O.co2     1 <0>        -0.6843
     20 N4          2.9084   -2.1405    2.4027 N.am      1 <0>        -0.7287
     21 C13         3.6779   -2.5490    1.3744 C.2       1 <0>         0.5032
     22 O3          3.2068   -3.2536    0.5069 O.2       1 <0>        -0.5302
     23 C14         5.1238   -2.1303    1.3025 C.3       1 <0>        -0.1767
     24 H3          1.0039    1.9031    0.0027 H         1 <0>         0.0501
     25 H4         -0.5459    1.8868   -0.8726 H         1 <0>         0.0545
     26 H5         -0.5289    1.8773    0.9072 H         1 <0>         0.0535
     27 H6         -1.0205   -0.3814    0.0098 H         1 <0>         0.0646
     28 H7          0.5123   -0.3556   -0.8948 H         1 <0>         0.0601
     29 H8          1.7647   -0.1336    1.2338 H         1 <0>         0.0551
     30 H9          0.2319   -0.1594    2.1383 H         1 <0>         0.0592
     31 H10        -0.2598   -2.4180    1.2409 H         1 <0>         0.0830
     32 H11         1.2730   -2.3923    0.3363 H         1 <0>         0.0878
     33 H12         1.0459   -2.1240    3.3671 H         1 <0>         0.0940
     34 H13        -0.7040   -3.6404    2.6769 H         1 <0>         0.0720
     35 H14        -0.3219   -5.1612    1.8213 H         1 <0>         0.0836
     36 H15        -0.5014   -4.6297    4.7846 H         1 <0>         0.0754
     37 H16         1.4208   -5.9770    5.3221 H         1 <0>         0.0740
     38 H17         1.4903   -6.6826    3.6734 H         1 <0>         0.0821
     39 H18         3.2496   -4.3593    5.8613 H         1 <0>         0.4372
     40 H19         4.8374   -4.6729    6.3121 H         1 <0>         0.4332
     41 H20         5.8929   -5.7852    3.1273 H         1 <0>         0.4352
     42 H21         6.3872   -5.5090    4.7091 H         1 <0>         0.4343
     43 H22         3.2852   -1.5770    3.0966 H         1 <0>         0.3983
     44 H23         5.3641   -1.5048    2.1622 H         1 <0>         0.0734
     45 H24         5.7592   -3.0159    1.3085 H         1 <0>         0.0884
     46 H25         5.2938   -1.5673    0.3848 H         1 <0>         0.0988
     47 H26         3.6935   -5.3417    2.5383 H         1 <0>         0.4360
@<TRIPOS>BOND
     1    1    2 1
     2    1   24 1
     3    1   25 1
     4    1   26 1
     5    2    3 1
     6    2   27 1
     7    2   28 1
     8    3    4 1
     9    3   29 1
    10    3   30 1
    11    4    5 1
    12    4   31 1
    13    4   32 1
    14    5    6 1
    15    5   20 1
    16    5   33 1
    17    6    7 1
    18    6   11 1
    19    6    8 1
    20    8    9 1
    21    8   34 1
    22    8   35 1
    23    9   10 1
    24    9   17 1
    25    9   36 1
    26   10   11 1
    27   10   37 1
    28   10   38 1
    29   11   12 1
    30   11   13 1
    31   13   14 2
    32   13   47 1
    33   14   15 1
    34   14   16 1
    35   15   39 1
    36   15   40 1
    37   16   41 1
    38   16   42 1
    39   17   18 2
    40   17   19 1
    41   20   21 am
    42   20   43 1
    43   21   22 2
    44   21   23 1
    45   23   44 1
    46   23   45 1
    47   23   46 1
@<TRIPOS>MOLECULE
CHEMBL119140__3
   47    47     0     0     0
SMALL
USER_CHARGES

@<TRIPOS>ATOM
      1 C1         -0.0187    1.5258    0.0104 C.3       1 <0>        -0.1525
      2 C2          0.0021   -0.0041    0.0020 C.3       1 <0>        -0.1258
      3 C3          0.7421   -0.5109    1.2415 C.3       1 <0>        -0.1138
      4 C4          0.7628   -2.0407    1.2331 C.3       1 <0>        -0.1409
      5 C5          1.5028   -2.5476    2.4727 C.3       1 <0>         0.1541
      6 C6          1.4162   -4.0741    2.5297 C.3       1 <0>        -0.1089
      7 H1          1.8597   -4.5067    1.6330 H         1 <0>         0.1051
      8 C7         -0.0566   -4.5154    2.6565 C.3       1 <0>        -0.0984
      9 C8         -0.0058   -5.7410    3.6022 C.3       1 <0>        -0.1563
     10 C9          1.0834   -5.3373    4.6267 C.3       1 <0>        -0.1182
     11 C10         2.1421   -4.5968    3.7817 C.3       1 <0>         0.1170
     12 H2          2.5561   -3.7629    4.3487 H         1 <0>         0.0997
     13 N1          3.2110   -5.5201    3.3932 N.pl3     1 <0>        -0.6349
     14 C11         4.2343   -5.7007    4.1802 C.cat     1 <0>         0.7325
     15 N2          4.3104   -5.0246    5.3749 N.pl3     1 <0>        -0.8165
     16 N3          5.2374   -6.5672    3.8155 N.pl3     1 <0>        -0.8215
     17 C12        -1.3334   -5.9433    4.2860 C.2       1 <0>         0.4958
     18 O1         -1.7731   -7.0697    4.4424 O.co2     1 <0>        -0.6920
     19 O2         -1.9678   -4.9807    4.6827 O.co2     1 <0>        -0.6870
     20 N4          2.9084   -2.1405    2.4027 N.am      1 <0>        -0.7298
     21 C13         3.6779   -2.5490    1.3744 C.2       1 <0>         0.5077
     22 O3          3.2068   -3.2536    0.5069 O.2       1 <0>        -0.5342
     23 C14         5.1238   -2.1303    1.3025 C.3       1 <0>        -0.1759
     24 H3          1.0039    1.9031    0.0027 H         1 <0>         0.0502
     25 H4         -0.5459    1.8868   -0.8726 H         1 <0>         0.0540
     26 H5         -0.5289    1.8773    0.9072 H         1 <0>         0.0543
     27 H6         -1.0205   -0.3814    0.0098 H         1 <0>         0.0643
     28 H7          0.5123   -0.3556   -0.8948 H         1 <0>         0.0590
     29 H8          1.7647   -0.1336    1.2338 H         1 <0>         0.0555
     30 H9          0.2319   -0.1594    2.1383 H         1 <0>         0.0614
     31 H10        -0.2598   -2.4180    1.2409 H         1 <0>         0.0813
     32 H11         1.2730   -2.3923    0.3363 H         1 <0>         0.0863
     33 H12         1.0459   -2.1240    3.3671 H         1 <0>         0.0984
     34 H13        -0.6570   -3.7189    3.0961 H         1 <0>         0.0906
     35 H14        -0.4544   -4.8011    1.6827 H         1 <0>         0.0699
     36 H15         0.2898   -6.6375    3.0571 H         1 <0>         0.0669
     37 H16         0.6672   -4.6737    5.3845 H         1 <0>         0.0976
     38 H17         1.5176   -6.2229    5.0907 H         1 <0>         0.0685
     39 H18         3.6027   -4.4133    5.6321 H         1 <0>         0.4366
     40 H19         5.0719   -5.1590    5.9605 H         1 <0>         0.4332
     41 H20         5.1837   -7.0442    2.9726 H         1 <0>         0.4360
     42 H21         5.9989   -6.7016    4.4012 H         1 <0>         0.4341
     43 H22         3.2852   -1.5770    3.0966 H         1 <0>         0.3998
     44 H23         5.3641   -1.5048    2.1622 H         1 <0>         0.0741
     45 H24         5.7592   -3.0159    1.3085 H         1 <0>         0.0883
     46 H25         5.2938   -1.5673    0.3848 H         1 <0>         0.0974
     47 H26         3.1573   -5.9971    2.5503 H         1 <0>         0.4369
@<TRIPOS>BOND
     1    1    2 1
     2    1   24 1
     3    1   25 1
     4    1   26 1
     5    2    3 1
     6    2   27 1
     7    2   28 1
     8    3    4 1
     9    3   29 1
    10    3   30 1
    11    4    5 1
    12    4   31 1
    13    4   32 1
    14    5    6 1
    15    5   20 1
    16    5   33 1
    17    6    7 1
    18    6   11 1
    19    6    8 1
    20    8    9 1
    21    8   34 1
    22    8   35 1
    23    9   10 1
    24    9   17 1
    25    9   36 1
    26   10   11 1
    27   10   37 1
    28   10   38 1
    29   11   12 1
    30   11   13 1
    31   13   14 2
    32   13   47 1
    33   14   15 1
    34   14   16 1
    35   15   39 1
    36   15   40 1
    37   16   41 1
    38   16   42 1
    39   17   18 2
    40   17   19 1
    41   20   21 am
    42   20   43 1
    43   21   22 2
    44   21   23 1
    45   23   44 1
    46   23   45 1
    47   23   46 1
@<TRIPOS>MOLECULE
CHEMBL310004
   59    59     0     0     0
SMALL
USER_CHARGES

@<TRIPOS>ATOM
      1 C1          0.7809    2.0953   -1.6317 C.3       1 <0>        -0.1557
      2 C2          0.6570    0.6003   -1.3308 C.3       1 <0>        -0.1238
      3 C3          1.3402   -0.2016   -2.4403 C.3       1 <0>        -0.1227
      4 C4          1.2163   -1.6966   -2.1394 C.3       1 <0>        -0.1162
      5 C5          1.8996   -2.4984   -3.2489 C.3       1 <0>        -0.1202
      6 C6          1.7757   -3.9934   -2.9480 C.3       1 <0>        -0.1260
      7 C7          2.4590   -4.7953   -4.0575 C.3       1 <0>        -0.1387
      8 C8          2.3350   -6.2903   -3.7566 C.3       1 <0>         0.0886
      9 H1          2.7342   -6.4953   -2.7633 H         1 <0>         0.0639
     10 C9          3.1238   -7.0872   -4.7977 C.3       1 <0>        -0.1208
     11 C10         3.0561   -8.5774   -4.4578 C.3       1 <0>        -0.1515
     12 O1          0.9593   -6.6736   -3.8055 O.3       1 <0>        -0.3387
     13 C11         0.3320   -6.7526   -2.5240 C.3       1 <0>         0.1164
     14 H2          0.7239   -5.9647   -1.8807 H         1 <0>         0.0770
     15 C12         0.6251   -8.0897   -1.9081 C.2       1 <0>        -0.1624
     16 C13        -0.2732   -8.8166   -1.2737 C.2       1 <0>        -0.1613
     17 C14        -1.7048   -8.4029   -1.0938 C.3       1 <0>        -0.0811
     18 C15        -1.8558   -6.9023   -1.3516 C.3       1 <0>         0.0201
     19 H3         -1.3782   -6.3427   -0.5473 H         1 <0>         0.1499
     20 C16        -1.1784   -6.5703   -2.6865 C.3       1 <0>         0.1323
     21 H4         -1.5468   -7.2409   -3.4629 H         1 <0>         0.1262
     22 N1         -1.4702   -5.1818   -3.0511 N.am      1 <0>        -0.7538
     23 C17        -1.4174   -4.7988   -4.3422 C.2       1 <0>         0.5126
     24 O2         -1.1283   -5.6036   -5.2022 O.2       1 <0>        -0.4914
     25 C18        -1.7175   -3.3704   -4.7174 C.3       1 <0>        -0.1734
     26 N2         -3.2814   -6.5537   -1.4164 N.4       1 <0>        -0.6303
     27 C19         0.1508  -10.1033   -0.7109 C.2       1 <0>         0.5112
     28 O3          1.3102  -10.4741   -0.8371 O.co2     1 <0>        -0.6713
     29 O4         -0.6549  -10.8058   -0.1151 O.co2     1 <0>        -0.6880
     30 H5          1.8346    2.3697   -1.6821 H         1 <0>         0.0547
     31 H6          0.3022    2.3147   -2.5861 H         1 <0>         0.0535
     32 H7          0.2941    2.6666   -0.8413 H         1 <0>         0.0539
     33 H8          1.1356    0.3809   -0.3764 H         1 <0>         0.0603
     34 H9         -0.3967    0.3260   -1.2804 H         1 <0>         0.0575
     35 H10         0.8616    0.0179   -3.3947 H         1 <0>         0.0609
     36 H11         2.3939    0.0728   -2.4907 H         1 <0>         0.0625
     37 H12         1.6950   -1.9160   -1.1850 H         1 <0>         0.0607
     38 H13         0.1626   -1.9709   -2.0890 H         1 <0>         0.0542
     39 H14         1.4209   -2.2790   -4.2033 H         1 <0>         0.0600
     40 H15         2.9533   -2.2241   -3.2994 H         1 <0>         0.0630
     41 H16         2.2543   -4.2129   -1.9936 H         1 <0>         0.0582
     42 H17         0.7220   -4.2678   -2.8976 H         1 <0>         0.0649
     43 H18         1.9803   -4.5759   -5.0119 H         1 <0>         0.0702
     44 H19         3.5127   -4.5210   -4.1080 H         1 <0>         0.0718
     45 H20         2.6940   -6.9199   -5.7853 H         1 <0>         0.0687
     46 H21         4.1637   -6.7605   -4.7939 H         1 <0>         0.0718
     47 H22         3.4027   -8.7332   -3.4362 H         1 <0>         0.0563
     48 H23         2.0269   -8.9246   -4.5492 H         1 <0>         0.0622
     49 H24         3.6905   -9.1362   -5.1459 H         1 <0>         0.0531
     50 H25         1.6293   -8.4786   -1.9897 H         1 <0>         0.1368
     51 H26        -2.3312   -8.9548   -1.7946 H         1 <0>         0.0956
     52 H27        -2.0207   -8.6282   -0.0752 H         1 <0>         0.1104
     53 H28        -1.7014   -4.5380   -2.3633 H         1 <0>         0.3941
     54 H29        -1.9545   -2.8009   -3.8187 H         1 <0>         0.0741
     55 H30        -0.8471   -2.9325   -5.2060 H         1 <0>         0.0999
     56 H31        -2.5679   -3.3447   -5.3987 H         1 <0>         0.0973
     57 H32        -3.7254   -6.7897   -0.5416 H         1 <0>         0.4403
     58 H33        -3.3782   -5.5639   -1.5864 H         1 <0>         0.4265
     59 H34        -3.7197   -7.0682   -2.1656 H         1 <0>         0.4356
@<TRIPOS>BOND
     1    1    2 1
     2    1   30 1
     3    1   31 1
     4    1   32 1
     5    2    3 1
     6    2   33 1
     7    2   34 1
     8    3    4 1
     9    3   35 1
    10    3   36 1
    11    4    5 1
    12    4   37 1
    13    4   38 1
    14    5    6 1
    15    5   39 1
    16    5   40 1
    17    6    7 1
    18    6   41 1
    19    6   42 1
    20    7    8 1
    21    7   43 1
    22    7   44 1
    23    8    9 1
    24    8   10 1
    25    8   12 1
    26   10   11 1
    27   10   45 1
    28   10   46 1
    29   11   47 1
    30   11   48 1
    31   11   49 1
    32   12   13 1
    33   13   14 1
    34   13   20 1
    35   13   15 1
    36   15   16 2
    37   15   50 1
    38   16   17 1
    39   16   27 1
    40   17   18 1
    41   17   51 1
    42   17   52 1
    43   18   19 1
    44   18   20 1
    45   18   26 1
    46   20   21 1
    47   20   22 1
    48   22   23 am
    49   22   53 1
    50   23   24 2
    51   23   25 1
    52   25   54 1
    53   25   55 1
    54   25   56 1
    55   26   57 1
    56   26   58 1
    57   26   59 1
    58   27   28 2
    59   27   29 1
@<TRIPOS>MOLECULE
CHEMBL98906
   65    67     0     0     0
SMALL
USER_CHARGES

@<TRIPOS>ATOM
      1 C1         -0.0670    1.4759    0.8400 C.3       1 <0>        -0.1539
      2 C2         -0.0023   -0.0254    0.5523 C.3       1 <0>        -0.1494
      3 C3          0.5675   -0.2521   -0.8494 C.3       1 <0>         0.0967
      4 N1          0.4931   -1.6768   -1.1822 N.am      1 <0>        -0.6061
      5 C4         -0.6729   -2.2023   -1.8968 C.3       1 <0>         0.1253
      6 C5         -0.4244   -2.1252   -3.4045 C.3       1 <0>        -0.0981
      7 C6         -1.6238   -2.6657   -4.1396 C.ar      1 <0>        -0.0790
      8 C7         -1.6939   -4.0124   -4.4476 C.ar      1 <0>        -0.1071
      9 C8         -2.7900   -4.5127   -5.1207 C.ar      1 <0>        -0.1064
     10 C9         -3.8272   -3.6586   -5.4900 C.ar      1 <0>        -0.0478
     11 C10        -3.7512   -2.3029   -5.1771 C.ar      1 <0>        -0.1089
     12 C11        -2.6530   -1.8143   -4.4988 C.ar      1 <0>        -0.1126
     13 C12        -5.0080   -4.1908   -6.2142 C.ar      1 <0>        -0.0458
     14 C13        -5.0863   -5.5474   -6.5223 C.ar      1 <0>        -0.1114
     15 C14        -6.1871   -6.0370   -7.1957 C.ar      1 <0>        -0.1169
     16 C15        -7.2112   -5.1836   -7.5649 C.ar      1 <0>        -0.1194
     17 C16        -7.1384   -3.8360   -7.2620 C.ar      1 <0>        -0.1177
     18 C17        -6.0451   -3.3366   -6.5835 C.ar      1 <0>        -0.1120
     19 C18         1.4974   -2.5042   -0.8310 C.2       1 <0>         0.5272
     20 O1          1.4083   -3.6936   -1.0509 O.2       1 <0>        -0.4822
     21 C19         2.7312   -1.9514   -0.1652 C.3       1 <0>         0.0536
     22 H1          2.6678   -0.8642   -0.1191 H         1 <0>         0.1017
     23 C20         2.8530   -2.5229    1.2539 C.3       1 <0>         0.0959
     24 H2          2.9803   -3.6044    1.2050 H         1 <0>         0.1371
     25 C21         4.0766   -1.8884    1.9235 C.3       1 <0>         0.0883
     26 H3          3.8574   -0.8499    2.1714 H         1 <0>         0.1438
     27 C22         5.2481   -1.9426    0.9808 C.2       1 <0>        -0.3731
     28 C23         5.1004   -2.1494   -0.3209 C.2       1 <0>         0.1414
     29 O2          3.8923   -2.3356   -0.9068 O.3       1 <0>        -0.2584
     30 C24         6.3029   -2.1777   -1.1681 C.2       1 <0>         0.5226
     31 O3          7.4074   -2.0125   -0.6682 O.co2     1 <0>        -0.6483
     32 O4          6.1985   -2.3664   -2.3725 O.co2     1 <0>        -0.6337
     33 N2          4.4012   -2.6270    3.1511 N.4       1 <0>        -0.6264
     34 N3          1.6470   -2.2018    2.0211 N.am      1 <0>        -0.7462
     35 C25         0.6374   -3.0917    2.0932 C.2       1 <0>         0.5056
     36 O5          0.7650   -4.1945    1.6050 O.2       1 <0>        -0.4949
     37 C26        -0.6502   -2.7164    2.7806 C.3       1 <0>        -0.1728
     38 H4          0.9433    1.8841    0.8690 H         1 <0>         0.0573
     39 H5         -0.6369    1.9722    0.0544 H         1 <0>         0.0616
     40 H6         -0.5534    1.6411    1.8013 H         1 <0>         0.0604
     41 H7          0.6400   -0.5090    1.2883 H         1 <0>         0.0610
     42 H8         -1.0046   -0.4499    0.6101 H         1 <0>         0.0707
     43 H9         -0.0112    0.3209   -1.5739 H         1 <0>         0.0908
     44 H10         1.6074    0.0734   -0.8759 H         1 <0>         0.0811
     45 H11        -0.8383   -3.2403   -1.6084 H         1 <0>         0.0889
     46 H12        -1.5520   -1.6100   -1.6427 H         1 <0>         0.0807
     47 H13        -0.2589   -1.0872   -3.6929 H         1 <0>         0.0758
     48 H14         0.4547   -2.7174   -3.6586 H         1 <0>         0.0811
     49 H15        -0.8893   -4.6734   -4.1612 H         1 <0>         0.1266
     50 H16        -2.8436   -5.5643   -5.3610 H         1 <0>         0.1260
     51 H17        -4.5521   -1.6365   -5.4614 H         1 <0>         0.1251
     52 H18        -2.5953   -0.7646   -4.2516 H         1 <0>         0.1231
     53 H19        -4.2870   -6.2144   -6.2351 H         1 <0>         0.1254
     54 H20        -6.2489   -7.0883   -7.4350 H         1 <0>         0.1247
     55 H21        -8.0706   -5.5709   -8.0920 H         1 <0>         0.1231
     56 H22        -7.9406   -3.1740   -7.5529 H         1 <0>         0.1243
     57 H23        -5.9913   -2.2850   -6.3435 H         1 <0>         0.1247
     58 H24         6.2434   -1.8081    1.3777 H         1 <0>         0.1659
     59 H25         4.6042   -3.5884    2.9215 H         1 <0>         0.4374
     60 H26         5.2069   -2.2092    3.5919 H         1 <0>         0.4399
     61 H27         1.5751   -1.3487    2.4771 H         1 <0>         0.4060
     62 H28        -1.3659   -2.3578    2.0408 H         1 <0>         0.1003
     63 H29        -1.0591   -3.5900    3.2882 H         1 <0>         0.1000
     64 H30        -0.4568   -1.9298    3.5100 H         1 <0>         0.0810
     65 H31         3.6154   -2.5909    3.7830 H         1 <0>         0.4263
@<TRIPOS>BOND
     1    1    2 1
     2    1   38 1
     3    1   39 1
     4    1   40 1
     5    2    3 1
     6    2   41 1
     7    2   42 1
     8    3    4 1
     9    3   43 1
    10    3   44 1
    11    4    5 1
    12    4   19 am
    13    5    6 1
    14    5   45 1
    15    5   46 1
    16    6    7 1
    17    6   47 1
    18    6   48 1
    19    7   12 ar
    20    7    8 ar
    21    8    9 ar
    22    8   49 1
    23    9   10 ar
    24    9   50 1
    25   10   11 ar
    26   10   13 1
    27   11   12 ar
    28   11   51 1
    29   12   52 1
    30   13   18 ar
    31   13   14 ar
    32   14   15 ar
    33   14   53 1
    34   15   16 ar
    35   15   54 1
    36   16   17 ar
    37   16   55 1
    38   17   18 ar
    39   17   56 1
    40   18   57 1
    41   19   20 2
    42   19   21 1
    43   21   22 1
    44   21   29 1
    45   21   23 1
    46   23   24 1
    47   23   25 1
    48   23   34 1
    49   25   26 1
    50   25   27 1
    51   25   33 1
    52   27   28 2
    53   27   58 1
    54   28   29 1
    55   28   30 1
    56   30   31 2
    57   30   32 1
    58   33   59 1
    59   33   60 1
    60   33   65 1
    61   34   35 am
    62   34   61 1
    63   35   36 2
    64   35   37 1
    65   37   62 1
    66   37   63 1
    67   37   64 1
@<TRIPOS>MOLECULE
CHEMBL98906__1
   64    66     0     0     0
SMALL
USER_CHARGES

@<TRIPOS>ATOM
      1 C1          0.1572    1.9029   -0.8744 C.3       1 <0>        -0.1326
      2 C2         -0.0207    0.3842   -0.8203 C.3       1 <0>        -0.1322
      3 C3          0.8739   -0.2720   -1.8738 C.3       1 <0>         0.1078
      4 N1          0.6115   -1.7129   -1.9084 N.am      1 <0>        -0.5936
      5 C4         -0.4690   -2.2408   -2.7450 C.3       1 <0>         0.1208
      6 C5          0.0763   -2.5659   -4.1371 C.3       1 <0>        -0.0959
      7 C6         -1.0353   -3.1090   -4.9977 C.ar      1 <0>        -0.0702
      8 C7         -1.2844   -4.4693   -5.0241 C.ar      1 <0>        -0.1095
      9 C8         -2.3011   -4.9721   -5.8105 C.ar      1 <0>        -0.1068
     10 C9         -3.0772   -4.1066   -6.5788 C.ar      1 <0>        -0.0556
     11 C10        -2.8217   -2.7372   -6.5484 C.ar      1 <0>        -0.1068
     12 C11        -1.8061   -2.2447   -5.7541 C.ar      1 <0>        -0.1121
     13 C12        -4.1713   -4.6414   -7.4266 C.ar      1 <0>        -0.0396
     14 C13        -4.4302   -6.0103   -7.4529 C.ar      1 <0>        -0.1132
     15 C14        -5.4494   -6.5022   -8.2429 C.ar      1 <0>        -0.1177
     16 C15        -6.2129   -5.6391   -9.0080 C.ar      1 <0>        -0.1232
     17 C16        -5.9600   -4.2793   -8.9860 C.ar      1 <0>        -0.1176
     18 C17        -4.9473   -3.7759   -8.1949 C.ar      1 <0>        -0.1130
     19 C18         1.3642   -2.5528   -1.1705 C.2       1 <0>         0.5422
     20 O1          1.1082   -3.7381   -1.1510 O.2       1 <0>        -0.5397
     21 C19         2.5238   -2.0191   -0.3696 C.3       1 <0>         0.0525
     22 H1          2.7842   -2.7277    0.4166 H         1 <0>         0.0996
     23 C20         3.7319   -1.8017   -1.2907 C.3       1 <0>         0.1241
     24 H2          3.4925   -1.0459   -2.0388 H         1 <0>         0.1158
     25 C21         4.9095   -1.3256   -0.4336 C.3       1 <0>         0.1304
     26 H3          5.2885   -2.1588    0.1581 H         1 <0>         0.0371
     27 C22         4.4486   -0.2266    0.4849 C.2       1 <0>        -0.2511
     28 C23         3.1662   -0.0160    0.7491 C.2       1 <0>         0.0344
     29 O2          2.1693   -0.7617    0.2128 O.3       1 <0>        -0.2719
     30 C24         2.8088    1.0770    1.6669 C.2       1 <0>         0.5364
     31 O3          3.6864    1.7674    2.1672 O.co2     1 <0>        -0.6694
     32 O4          1.6340    1.2956    1.9299 O.co2     1 <0>        -0.6581
     33 N2          5.9772   -0.8191   -1.3063 N.3       1 <0>        -0.8264
     34 N3          4.0800   -3.0606   -1.9544 N.am      1 <0>        -0.7253
     35 C25         4.6454   -3.0436   -3.1777 C.2       1 <0>         0.5059
     36 O5          4.9497   -1.9875   -3.6905 O.2       1 <0>        -0.5253
     37 C26         4.8994   -4.3369   -3.9084 C.3       1 <0>        -0.1706
     38 H4          1.1789    2.1592   -0.5941 H         1 <0>         0.0619
     39 H5         -0.0415    2.2561   -1.8862 H         1 <0>         0.0351
     40 H6         -0.5390    2.3752   -0.1814 H         1 <0>         0.0542
     41 H7          0.2568    0.0209    0.1692 H         1 <0>         0.1004
     42 H8         -1.0623    0.1331   -1.0206 H         1 <0>         0.0451
     43 H9          0.6604    0.1598   -2.8516 H         1 <0>         0.0651
     44 H10         1.9200   -0.0991   -1.6209 H         1 <0>         0.0939
     45 H11        -0.8703   -3.1469   -2.2912 H         1 <0>         0.0853
     46 H12        -1.2601   -1.4957   -2.8296 H         1 <0>         0.0803
     47 H13         0.4775   -1.6598   -4.5909 H         1 <0>         0.0754
     48 H14         0.8674   -3.3110   -4.0525 H         1 <0>         0.0750
     49 H15        -0.6821   -5.1393   -4.4285 H         1 <0>         0.1256
     50 H16        -2.4946   -6.0344   -5.8307 H         1 <0>         0.1239
     51 H17        -3.4200   -2.0620   -7.1422 H         1 <0>         0.1243
     52 H18        -1.6104   -1.1830   -5.7261 H         1 <0>         0.1254
     53 H19        -3.8341   -6.6851   -6.8565 H         1 <0>         0.1251
     54 H20        -5.6509   -7.5630   -8.2641 H         1 <0>         0.1231
     55 H21        -7.0093   -6.0283   -9.6250 H         1 <0>         0.1213
     56 H22        -6.5590   -3.6099   -9.5856 H         1 <0>         0.1233
     57 H23        -4.7536   -2.7136   -8.1750 H         1 <0>         0.1253
     58 H24         5.1876    0.4125    0.9452 H         1 <0>         0.1368
     59 H25         6.7657   -0.4988   -0.7644 H         1 <0>         0.3402
     60 H26         6.2591   -1.5189   -1.9762 H         1 <0>         0.3397
     61 H27         3.9037   -3.9063   -1.5133 H         1 <0>         0.4027
     62 H28         4.4831   -5.1656   -3.3357 H         1 <0>         0.0749
     63 H29         4.4257   -4.2990   -4.8894 H         1 <0>         0.0937
     64 H30         5.9730   -4.4814   -4.0287 H         1 <0>         0.0928
@<TRIPOS>BOND
     1    1    2 1
     2    1   38 1
     3    1   39 1
     4    1   40 1
     5    2    3 1
     6    2   41 1
     7    2   42 1
     8    3    4 1
     9    3   43 1
    10    3   44 1
    11    4    5 1
    12    4   19 am
    13    5    6 1
    14    5   45 1
    15    5   46 1
    16    6    7 1
    17    6   47 1
    18    6   48 1
    19    7   12 ar
    20    7    8 ar
    21    8    9 ar
    22    8   49 1
    23    9   10 ar
    24    9   50 1
    25   10   11 ar
    26   10   13 1
    27   11   12 ar
    28   11   51 1
    29   12   52 1
    30   13   18 ar
    31   13   14 ar
    32   14   15 ar
    33   14   53 1
    34   15   16 ar
    35   15   54 1
    36   16   17 ar
    37   16   55 1
    38   17   18 ar
    39   17   56 1
    40   18   57 1
    41   19   20 2
    42   19   21 1
    43   21   22 1
    44   21   29 1
    45   21   23 1
    46   23   24 1
    47   23   25 1
    48   23   34 1
    49   25   26 1
    50   25   27 1
    51   25   33 1
    52   27   28 2
    53   27   58 1
    54   28   29 1
    55   28   30 1
    56   30   31 2
    57   30   32 1
    58   33   59 1
    59   33   60 1
    60   34   35 am
    61   34   61 1
    62   35   36 2
    63   35   37 1
    64   37   62 1
    65   37   63 1
    66   37   64 1
@<TRIPOS>MOLECULE
CHEMBL350298
   47    47     0     0     0
SMALL
USER_CHARGES

@<TRIPOS>ATOM
      1 C1          3.7894   -5.9628    2.1128 C.3       1 <0>        -0.1330
      2 C2          2.9900   -5.4942    0.8953 C.3       1 <0>        -0.1322
      3 C3          1.9082   -4.5095    1.3437 C.3       1 <0>         0.1071
      4 N1          1.0636   -4.1576    0.1995 N.am      1 <0>        -0.5935
      5 C4         -0.0858   -4.9969   -0.1481 C.3       1 <0>         0.1125
      6 C5         -1.3260   -4.4963    0.5949 C.3       1 <0>        -0.1392
      7 C6         -2.5264   -5.3728    0.2318 C.3       1 <0>        -0.1465
      8 C7          1.3440   -3.0618   -0.5333 C.2       1 <0>         0.5362
      9 O1          0.6825   -2.8043   -1.5167 O.2       1 <0>        -0.5364
     10 C8          2.4795   -2.1565   -0.1307 C.3       1 <0>         0.0531
     11 H1          2.7918   -1.5567   -0.9856 H         1 <0>         0.1050
     12 C9          2.0268   -1.2349    1.0098 C.3       1 <0>         0.1215
     13 H2          1.7748   -1.8316    1.8865 H         1 <0>         0.1238
     14 C10         3.1808   -0.2845    1.3459 C.3       1 <0>         0.1297
     15 H3          3.2841    0.4563    0.5530 H         1 <0>         0.0442
     16 C11         4.4580   -1.0705    1.4675 C.2       1 <0>        -0.2508
     17 C12         4.5847   -2.2958    0.9762 C.2       1 <0>         0.0360
     18 O2          3.5804   -2.9420    0.3348 O.3       1 <0>        -0.2678
     19 C13         5.8747   -2.9855    1.1342 C.2       1 <0>         0.5365
     20 O3          6.8002   -2.4280    1.7083 O.co2     1 <0>        -0.6674
     21 O4          6.0219   -4.1167    0.6915 O.co2     1 <0>        -0.6562
     22 N2          2.9009    0.3952    2.6177 N.3       1 <0>        -0.8270
     23 N3          0.8567   -0.4620    0.5856 N.am      1 <0>        -0.6951
     24 C14        -0.0568   -0.0684    1.4950 C.2       1 <0>         0.4796
     25 O5          0.1344   -0.2741    2.6748 O.2       1 <0>        -0.4535
     26 C15        -1.3159    0.6272    1.0458 C.3       1 <0>         0.4504
     27 F1         -2.0474    1.0367    2.1658 F         1 <0>        -0.1530
     28 F2         -0.9812    1.7445    0.2733 F         1 <0>        -0.1692
     29 F3         -2.0881   -0.2540    0.2812 F         1 <0>        -0.1628
     30 H4          4.3227   -5.1162    2.5452 H         1 <0>         0.0618
     31 H5          3.1093   -6.3811    2.8549 H         1 <0>         0.0356
     32 H6          4.5056   -6.7250    1.8058 H         1 <0>         0.0547
     33 H7          3.6588   -5.0023    0.1890 H         1 <0>         0.1002
     34 H8          2.5225   -6.3536    0.4149 H         1 <0>         0.0461
     35 H9          1.2961   -4.9705    2.1189 H         1 <0>         0.0667
     36 H10         2.3779   -3.6090    1.7392 H         1 <0>         0.0916
     37 H11        -0.2608   -4.9462   -1.2227 H         1 <0>         0.0838
     38 H12         0.1178   -6.0286    0.1386 H         1 <0>         0.0792
     39 H13        -1.1510   -4.5470    1.6695 H         1 <0>         0.0629
     40 H14        -1.5296   -3.4646    0.3082 H         1 <0>         0.0628
     41 H15        -2.7015   -5.3221   -0.8428 H         1 <0>         0.0558
     42 H16        -2.3229   -6.4045    0.5185 H         1 <0>         0.0551
     43 H17        -3.4100   -5.0161    0.7611 H         1 <0>         0.0554
     44 H18         5.3007   -0.6212    1.9718 H         1 <0>         0.1407
     45 H19         3.6480    1.0281    2.8615 H         1 <0>         0.3459
     46 H20         2.0154    0.8775    2.5828 H         1 <0>         0.3362
     47 H21         0.7396   -0.2335   -0.3498 H         1 <0>         0.4135
@<TRIPOS>BOND
     1    1    2 1
     2    1   30 1
     3    1   31 1
     4    1   32 1
     5    2    3 1
     6    2   33 1
     7    2   34 1
     8    3    4 1
     9    3   35 1
    10    3   36 1
    11    4    5 1
    12    4    8 am
    13    5    6 1
    14    5   37 1
    15    5   38 1
    16    6    7 1
    17    6   39 1
    18    6   40 1
    19    7   41 1
    20    7   42 1
    21    7   43 1
    22    8    9 2
    23    8   10 1
    24   10   11 1
    25   10   18 1
    26   10   12 1
    27   12   13 1
    28   12   14 1
    29   12   23 1
    30   14   15 1
    31   14   16 1
    32   14   22 1
    33   16   17 2
    34   16   44 1
    35   17   18 1
    36   17   19 1
    37   19   20 2
    38   19   21 1
    39   22   45 1
    40   22   46 1
    41   23   24 am
    42   23   47 1
    43   24   25 2
    44   24   26 1
    45   26   27 1
    46   26   28 1
    47   26   29 1
@<TRIPOS>MOLECULE
CHEMBL350298__1
   48    48     0     0     0
SMALL
USER_CHARGES

@<TRIPOS>ATOM
      1 C1          1.6349    0.9082   -0.5346 C.3       1 <0>        -0.1493
      2 C2          1.4124   -0.6054   -0.5558 C.3       1 <0>        -0.1415
      3 C3          0.1872   -0.9527    0.2923 C.3       1 <0>         0.1172
      4 N1         -0.0258   -2.4020    0.2720 N.am      1 <0>        -0.6032
      5 C4          0.6097   -3.2500    1.2834 C.3       1 <0>         0.0945
      6 C5         -0.2811   -3.3173    2.5255 C.3       1 <0>        -0.1426
      7 C6          0.4405   -4.0931    3.6293 C.3       1 <0>        -0.1543
      8 C7         -0.8065   -2.9551   -0.6772 C.2       1 <0>         0.5217
      9 O1         -1.2473   -2.2694   -1.5753 O.2       1 <0>        -0.4881
     10 C8         -1.1318   -4.4256   -0.6227 C.3       1 <0>         0.0534
     11 H1         -0.5580   -4.8993    0.1738 H         1 <0>         0.1077
     12 C9         -2.6323   -4.6140   -0.3617 C.3       1 <0>         0.0933
     13 H2         -3.2048   -4.1962   -1.1898 H         1 <0>         0.1479
     14 C10        -2.9142   -6.1156   -0.2443 C.3       1 <0>         0.0888
     15 H3         -2.5240   -6.4856    0.7038 H         1 <0>         0.1486
     16 C11        -2.2449   -6.8414   -1.3797 C.2       1 <0>        -0.3707
     17 C12        -1.2746   -6.2915   -2.0974 C.2       1 <0>         0.1412
     18 O2         -0.8123   -5.0366   -1.8758 O.3       1 <0>        -0.2535
     19 C13        -0.6718   -7.0798   -3.1836 C.2       1 <0>         0.5229
     20 O3         -1.0676   -8.2157   -3.4076 O.co2     1 <0>        -0.6462
     21 O4          0.2253   -6.5994   -3.8630 O.co2     1 <0>        -0.6318
     22 N2         -4.3637   -6.3477   -0.3013 N.4       1 <0>        -0.6277
     23 N3         -3.0051   -3.9416    0.8853 N.am      1 <0>        -0.7208
     24 C14        -3.6545   -2.7612    0.8464 C.2       1 <0>         0.4807
     25 O5         -4.0102   -2.2996   -0.2172 O.2       1 <0>        -0.4298
     26 C15        -3.9387   -2.0151    2.1245 C.3       1 <0>         0.4550
     27 F1         -4.7263   -0.8933    1.8443 F         1 <0>        -0.1435
     28 F2         -4.6208   -2.8539    3.0124 F         1 <0>        -0.1670
     29 F3         -2.7327   -1.6053    2.7033 F         1 <0>        -0.1558
     30 H4          2.5077    1.1557   -1.1387 H         1 <0>         0.0605
     31 H5          0.7571    1.4102   -0.9416 H         1 <0>         0.0568
     32 H6          1.7983    1.2371    0.4917 H         1 <0>         0.0548
     33 H7          1.2490   -0.9342   -1.5820 H         1 <0>         0.0712
     34 H8          2.2901   -1.1074   -0.1487 H         1 <0>         0.0649
     35 H9          0.3506   -0.6238    1.3185 H         1 <0>         0.0817
     36 H10        -0.6905   -0.4507   -0.1148 H         1 <0>         0.0832
     37 H11         0.7486   -4.2535    0.8811 H         1 <0>         0.0843
     38 H12         1.5785   -2.8296    1.5535 H         1 <0>         0.0938
     39 H13        -0.4969   -2.3069    2.8731 H         1 <0>         0.0773
     40 H14        -1.2141   -3.8228    2.2765 H         1 <0>         0.0460
     41 H15        -0.1564   -4.0676    4.5410 H         1 <0>         0.0618
     42 H16         0.5797   -5.1275    3.3149 H         1 <0>         0.0583
     43 H17         1.4122   -3.6369    3.8183 H         1 <0>         0.0638
     44 H18        -2.5654   -7.8447   -1.6183 H         1 <0>         0.1695
     45 H19        -4.7248   -6.0053   -1.1791 H         1 <0>         0.4385
     46 H20        -4.5492   -7.3365   -0.2240 H         1 <0>         0.4428
     47 H21        -2.7845   -4.3458    1.7390 H         1 <0>         0.4172
     48 H22        -4.8125   -5.8607    0.4599 H         1 <0>         0.4263
@<TRIPOS>BOND
     1    1    2 1
     2    1   30 1
     3    1   31 1
     4    1   32 1
     5    2    3 1
     6    2   33 1
     7    2   34 1
     8    3    4 1
     9    3   35 1
    10    3   36 1
    11    4    5 1
    12    4    8 am
    13    5    6 1
    14    5   37 1
    15    5   38 1
    16    6    7 1
    17    6   39 1
    18    6   40 1
    19    7   41 1
    20    7   42 1
    21    7   43 1
    22    8    9 2
    23    8   10 1
    24   10   11 1
    25   10   18 1
    26   10   12 1
    27   12   13 1
    28   12   14 1
    29   12   23 1
    30   14   15 1
    31   14   16 1
    32   14   22 1
    33   16   17 2
    34   16   44 1
    35   17   18 1
    36   17   19 1
    37   19   20 2
    38   19   21 1
    39   22   45 1
    40   22   46 1
    41   22   48 1
    42   23   24 am
    43   23   47 1
    44   24   25 2
    45   24   26 1
    46   26   27 1
    47   26   28 1
    48   26   29 1
@<TRIPOS>MOLECULE
CHEMBL139367
   51    51     0     0     0
SMALL
USER_CHARGES

@<TRIPOS>ATOM
      1 C1         -3.9020   -0.7663   -1.0184 C.3       1 <0>        -0.1475
      2 C2         -2.4547   -0.2779   -1.1059 C.3       1 <0>        -0.1320
      3 C3         -1.6792   -0.7582    0.1225 C.3       1 <0>        -0.0898
      4 C4         -0.2025   -0.3879   -0.0298 C.3       1 <0>        -0.1294
      5 C5          0.6043   -1.0349    1.0977 C.3       1 <0>        -0.1357
      6 C6         -2.2458   -0.0898    1.3767 C.3       1 <0>         0.1571
      7 H1         -1.5985   -0.3049    2.2269 H         1 <0>         0.1143
      8 C7         -2.3177    1.4231    1.1602 C.3       1 <0>        -0.0943
      9 H2         -2.7975    1.6489    0.2079 H         1 <0>         0.1058
     10 C8         -3.0797    2.1018    2.3255 C.3       1 <0>         0.1168
     11 H3         -2.8330    1.6286    3.2759 H         1 <0>         0.1094
     12 C9         -2.5467    3.5555    2.2815 C.3       1 <0>        -0.1051
     13 C10        -1.0525    3.4002    1.9309 C.3       1 <0>        -0.1909
     14 H4         -0.4525    3.4099    2.8409 H         1 <0>         0.0843
     15 C11        -0.9065    2.0439    1.2144 C.3       1 <0>         0.1154
     16 H5         -0.5246    2.1918    0.2043 H         1 <0>         0.1090
     17 O1         -0.0258    1.1938    1.9517 O.3       1 <0>        -0.5615
     18 C12        -0.6186    4.5154    1.0150 C.2       1 <0>         0.4941
     19 O2         -0.6838    5.6734    1.3910 O.co2     1 <0>        -0.6880
     20 O3         -0.2023    4.2598   -0.1021 O.co2     1 <0>        -0.6829
     21 N1         -4.5253    2.0674    2.0904 N.pl3     1 <0>        -0.6836
     22 C13        -5.3916    2.1244    3.1474 C.cat     1 <0>         0.7394
     23 N2         -6.7059    2.0931    2.9336 N.pl3     1 <0>        -0.8005
     24 N3         -4.9210    2.2110    4.3904 N.pl3     1 <0>        -0.7917
     25 N4         -3.5896   -0.6095    1.6423 N.am      1 <0>        -0.7305
     26 C14        -3.7443   -1.8425    2.1640 C.2       1 <0>         0.5040
     27 O4         -2.7720   -2.4862    2.4978 O.2       1 <0>        -0.5278
     28 C15        -5.1254   -2.4215    2.3326 C.3       1 <0>        -0.1733
     29 H6         -4.4153   -0.5511   -1.9556 H         1 <0>         0.0512
     30 H7         -3.9124   -1.8410   -0.8369 H         1 <0>         0.0520
     31 H8         -4.4093   -0.2548   -0.2005 H         1 <0>         0.0436
     32 H9         -1.9904   -0.6770   -2.0077 H         1 <0>         0.0667
     33 H10        -2.4404    0.8115   -1.1416 H         1 <0>         0.0696
     34 H11        -1.7751   -1.8402    0.2125 H         1 <0>         0.0746
     35 H12         0.1647   -0.7466   -0.9914 H         1 <0>         0.0503
     36 H13        -0.0925    0.6953    0.0200 H         1 <0>         0.0915
     37 H14         1.6247   -0.6521    1.0802 H         1 <0>         0.0465
     38 H15         0.1436   -0.7976    2.0566 H         1 <0>         0.0735
     39 H16         0.6195   -2.1160    0.9595 H         1 <0>         0.0336
     40 H17        -3.0622    4.1276    1.5101 H         1 <0>         0.0805
     41 H18        -2.6627    4.0339    3.2541 H         1 <0>         0.0717
     42 H19         0.8783    1.5298    2.0215 H         1 <0>         0.3835
     43 H20        -4.8680    2.0043    1.1852 H         1 <0>         0.4312
     44 H21        -7.0487    2.0300    2.0284 H         1 <0>         0.4386
     45 H22        -3.9638    2.2338    4.5460 H         1 <0>         0.4413
     46 H23        -5.5353    2.2514    5.1399 H         1 <0>         0.4372
     47 H24        -4.3679   -0.0662    1.4426 H         1 <0>         0.3829
     48 H25        -5.8659   -1.7035    1.9803 H         1 <0>         0.0660
     49 H26        -5.2069   -3.3413    1.7535 H         1 <0>         0.0980
     50 H27        -5.3022   -2.6386    3.3861 H         1 <0>         0.0925
     51 H28        -7.3203    2.1335    3.6832 H         1 <0>         0.4381
@<TRIPOS>BOND
     1    1    2 1
     2    1   29 1
     3    1   30 1
     4    1   31 1
     5    2    3 1
     6    2   32 1
     7    2   33 1
     8    3    4 1
     9    3    6 1
    10    3   34 1
    11    4    5 1
    12    4   35 1
    13    4   36 1
    14    5   37 1
    15    5   38 1
    16    5   39 1
    17    6    7 1
    18    6    8 1
    19    6   25 1
    20    8    9 1
    21    8   15 1
    22    8   10 1
    23   10   11 1
    24   10   12 1
    25   10   21 1
    26   12   13 1
    27   12   40 1
    28   12   41 1
    29   13   14 1
    30   13   15 1
    31   13   18 1
    32   15   16 1
    33   15   17 1
    34   17   42 1
    35   18   19 2
    36   18   20 1
    37   21   22 1
    38   21   43 1
    39   22   23 2
    40   22   24 1
    41   23   44 1
    42   23   51 1
    43   24   45 1
    44   24   46 1
    45   25   26 am
    46   25   47 1
    47   26   27 2
    48   26   28 1
    49   28   48 1
    50   28   49 1
    51   28   50 1
@<TRIPOS>MOLECULE
CHEMBL411601
   50    51     0     0     0
SMALL
USER_CHARGES

@<TRIPOS>ATOM
      1 C1         -2.5953    1.3564   -0.4994 C.3       1 <0>        -0.1766
      2 C2         -2.3531   -0.1274   -0.6028 C.2       1 <0>         0.5164
      3 O1         -3.0458   -0.8055   -1.3316 O.2       1 <0>        -0.5436
      4 N1         -1.3667   -0.7008    0.1146 N.am      1 <0>        -0.7153
      5 C3         -1.1966   -2.1558    0.0939 C.3       1 <0>         0.1341
      6 C4         -0.5322   -2.6101    1.3950 C.3       1 <0>        -0.1076
      7 H1         -0.3833   -3.6899    1.3895 H         1 <0>         0.1065
      8 C5          0.8174   -1.8779    1.5990 C.3       1 <0>        -0.0860
      9 C6          1.0243   -1.9633    3.1316 C.3       1 <0>        -0.1575
     10 C7         -0.3909   -1.7742    3.7156 C.3       1 <0>        -0.1136
     11 C8         -1.3824   -2.1886    2.6113 C.3       1 <0>         0.1116
     12 H2         -2.0199   -1.3450    2.3468 H         1 <0>         0.1092
     13 N2         -2.2020   -3.3148    3.0652 N.pl3     1 <0>        -0.6463
     14 C9         -3.3088   -3.0942    3.7173 C.cat     1 <0>         0.7379
     15 N3         -3.7071   -1.8047    3.9791 N.pl3     1 <0>        -0.8114
     16 N4         -4.0780   -4.1511    4.1433 N.pl3     1 <0>        -0.8187
     17 C10         1.9404   -0.8631    3.6022 C.2       1 <0>         0.4947
     18 O2          1.8169   -0.4057    4.7257 O.co2     1 <0>        -0.6925
     19 O3          2.8050   -0.4303    2.8595 O.co2     1 <0>        -0.6804
     20 C11        -0.3285   -2.5435   -1.0754 C.2       1 <0>         0.5086
     21 O4          0.3924   -1.7183   -1.5953 O.2       1 <0>        -0.5035
     22 N5         -0.3534   -3.8071   -1.5434 N.am      1 <0>        -0.6165
     23 C12        -1.2313   -4.7943   -0.9131 C.3       1 <0>         0.1058
     24 C13        -2.3161   -5.2223   -1.9082 C.3       1 <0>        -0.1087
     25 S1         -1.5103   -5.8723   -3.4028 S.3       1 <0>        -0.2463
     26 C14        -0.3814   -4.5297   -3.8811 C.3       1 <0>        -0.1001
     27 C15         0.4933   -4.1741   -2.6796 C.3       1 <0>         0.1088
     28 H3         -3.4268    1.6348   -1.1467 H         1 <0>         0.0959
     29 H4         -2.8357    1.6143    0.5321 H         1 <0>         0.0908
     30 H5         -1.6985    1.8934   -0.8085 H         1 <0>         0.0968
     31 H6         -0.7693   -0.1502    0.6446 H         1 <0>         0.4148
     32 H7         -2.1712   -2.6342   -0.0027 H         1 <0>         0.1092
     33 H8          1.6201   -2.3933    1.0716 H         1 <0>         0.0828
     34 H9          0.7461   -0.8393    1.2761 H         1 <0>         0.0817
     35 H10         1.4242   -2.9386    3.4089 H         1 <0>         0.0769
     36 H11        -0.5220   -2.4109    4.5905 H         1 <0>         0.0753
     37 H12        -0.5466   -0.7299    3.9865 H         1 <0>         0.0951
     38 H13        -3.1644   -1.0590    3.6785 H         1 <0>         0.4381
     39 H14        -4.5308   -1.6405    4.4644 H         1 <0>         0.4356
     40 H15        -3.7970   -5.0610    3.9586 H         1 <0>         0.4360
     41 H16        -4.9017   -3.9870    4.6286 H         1 <0>         0.4362
     42 H17        -0.6458   -5.6648   -0.6172 H         1 <0>         0.0922
     43 H18        -1.6992   -4.3546   -0.0324 H         1 <0>         0.0847
     44 H19        -2.9373   -5.9982   -1.4607 H         1 <0>         0.1171
     45 H20        -2.9325   -4.3622   -2.1696 H         1 <0>         0.0899
     46 H21         0.2476   -4.8581   -4.7085 H         1 <0>         0.1212
     47 H22        -0.9591   -3.6558   -4.1820 H         1 <0>         0.0881
     48 H23         1.1380   -3.3342   -2.9385 H         1 <0>         0.1095
     49 H24         1.1069   -5.0344   -2.4125 H         1 <0>         0.0881
     50 H25        -1.9210   -4.2246    2.8805 H         1 <0>         0.4349
@<TRIPOS>BOND
     1    1    2 1
     2    1   28 1
     3    1   29 1
     4    1   30 1
     5    2    3 2
     6    2    4 am
     7    4    5 1
     8    4   31 1
     9    5    6 1
    10    5   20 1
    11    5   32 1
    12    6    7 1
    13    6   11 1
    14    6    8 1
    15    8    9 1
    16    8   33 1
    17    8   34 1
    18    9   10 1
    19    9   17 1
    20    9   35 1
    21   10   11 1
    22   10   36 1
    23   10   37 1
    24   11   12 1
    25   11   13 1
    26   13   14 2
    27   13   50 1
    28   14   15 1
    29   14   16 1
    30   15   38 1
    31   15   39 1
    32   16   40 1
    33   16   41 1
    34   17   18 2
    35   17   19 1
    36   20   21 2
    37   20   22 am
    38   22   27 1
    39   22   23 1
    40   23   24 1
    41   23   42 1
    42   23   43 1
    43   24   25 1
    44   24   44 1
    45   24   45 1
    46   25   26 1
    47   26   27 1
    48   26   46 1
    49   26   47 1
    50   27   48 1
    51   27   49 1
@<TRIPOS>MOLECULE
CHEMBL411601__1
   50    51     0     0     0
SMALL
USER_CHARGES

@<TRIPOS>ATOM
      1 C1         -2.4319    1.4055   -0.5650 C.3       1 <0>        -0.1764
      2 C2         -2.2611   -0.0900   -0.6387 C.2       1 <0>         0.5159
      3 O1         -2.9940   -0.7500   -1.3445 O.2       1 <0>        -0.5433
      4 N1         -1.2939   -0.6941    0.0798 N.am      1 <0>        -0.7145
      5 C3         -1.1966   -2.1558    0.0939 C.3       1 <0>         0.1323
      6 C4         -0.5322   -2.6101    1.3950 C.3       1 <0>        -0.0982
      7 H1         -0.3866   -3.6903    1.3822 H         1 <0>         0.1048
      8 C5          0.8203   -1.8981    1.5729 C.3       1 <0>        -0.1117
      9 C6          0.7229   -1.0877    2.8820 C.3       1 <0>        -0.1543
     10 C7         -0.3805   -1.8098    3.6944 C.3       1 <0>        -0.1122
     11 C8         -1.4048   -2.2087    2.6022 C.3       1 <0>         0.1106
     12 H2         -2.0409   -1.3609    2.3480 H         1 <0>         0.1130
     13 N2         -2.2159   -3.3441    3.0486 N.pl3     1 <0>        -0.6453
     14 C9         -3.3321   -3.1360    3.6887 C.cat     1 <0>         0.7385
     15 N3         -3.7483   -1.8510    3.9449 N.pl3     1 <0>        -0.8131
     16 N4         -4.0933   -4.2015    4.1076 N.pl3     1 <0>        -0.8178
     17 C10         2.0340   -1.1249    3.6240 C.2       1 <0>         0.4966
     18 O2          2.4495   -0.1215    4.1782 O.co2     1 <0>        -0.6857
     19 O3          2.6792   -2.1584    3.6703 O.co2     1 <0>        -0.6859
     20 C11        -0.3700   -2.6155   -1.0794 C.2       1 <0>         0.5095
     21 O4          0.3815   -1.8407   -1.6325 O.2       1 <0>        -0.5076
     22 N5         -0.4659   -3.8876   -1.5141 N.am      1 <0>        -0.6152
     23 C12        -1.3802   -4.8136   -0.8439 C.3       1 <0>         0.1052
     24 C13        -2.5026   -5.2115   -1.8092 C.3       1 <0>        -0.1087
     25 S1         -1.7571   -5.9381   -3.2998 S.3       1 <0>        -0.2453
     26 C14        -0.5718   -4.6661   -3.8315 C.3       1 <0>        -0.1001
     27 C15         0.3409   -4.3247   -2.6544 C.3       1 <0>         0.1085
     28 H3         -3.2573    1.7091   -1.2088 H         1 <0>         0.0960
     29 H4         -2.6470    1.6964    0.4632 H         1 <0>         0.0912
     30 H5         -1.5147    1.8926   -0.8960 H         1 <0>         0.0960
     31 H6         -0.6623   -0.1610    0.5876 H         1 <0>         0.4146
     32 H7         -2.1953   -2.5871    0.0260 H         1 <0>         0.1090
     33 H8          1.6221   -2.6327    1.6473 H         1 <0>         0.0990
     34 H9          1.0033   -1.2288    0.7322 H         1 <0>         0.0768
     35 H10         0.4310   -0.0586    2.6727 H         1 <0>         0.0745
     36 H11         0.0203   -2.6946    4.1889 H         1 <0>         0.0912
     37 H12        -0.8324   -1.1324    4.4191 H         1 <0>         0.0777
     38 H13        -3.2112   -1.0992    3.6493 H         1 <0>         0.4374
     39 H14        -4.5790   -1.6961    4.4212 H         1 <0>         0.4356
     40 H15        -3.7996   -5.1081    3.9268 H         1 <0>         0.4367
     41 H16        -4.9239   -4.0466    4.5839 H         1 <0>         0.4363
     42 H17        -0.8333   -5.7046   -0.5354 H         1 <0>         0.0933
     43 H18        -1.8098   -4.3291    0.0330 H         1 <0>         0.0840
     44 H19        -3.1533   -5.9440   -1.3315 H         1 <0>         0.1172
     45 H20        -3.0802   -4.3285   -2.0824 H         1 <0>         0.0898
     46 H21         0.0251   -5.0461   -4.6606 H         1 <0>         0.1215
     47 H22        -1.1108   -3.7722   -4.1452 H         1 <0>         0.0879
     48 H23         1.0217   -3.5248   -2.9457 H         1 <0>         0.1092
     49 H24         0.9159   -5.2077   -2.3755 H         1 <0>         0.0889
     50 H25        -1.9223   -4.2508    2.8678 H         1 <0>         0.4365
@<TRIPOS>BOND
     1    1    2 1
     2    1   28 1
     3    1   29 1
     4    1   30 1
     5    2    3 2
     6    2    4 am
     7    4    5 1
     8    4   31 1
     9    5    6 1
    10    5   20 1
    11    5   32 1
    12    6    7 1
    13    6   11 1
    14    6    8 1
    15    8    9 1
    16    8   33 1
    17    8   34 1
    18    9   10 1
    19    9   17 1
    20    9   35 1
    21   10   11 1
    22   10   36 1
    23   10   37 1
    24   11   12 1
    25   11   13 1
    26   13   14 2
    27   13   50 1
    28   14   15 1
    29   14   16 1
    30   15   38 1
    31   15   39 1
    32   16   40 1
    33   16   41 1
    34   17   18 2
    35   17   19 1
    36   20   21 2
    37   20   22 am
    38   22   27 1
    39   22   23 1
    40   23   24 1
    41   23   42 1
    42   23   43 1
    43   24   25 1
    44   24   44 1
    45   24   45 1
    46   25   26 1
    47   26   27 1
    48   26   46 1
    49   26   47 1
    50   27   48 1
    51   27   49 1
@<TRIPOS>MOLECULE
CHEMBL411601__2
   50    51     0     0     0
SMALL
USER_CHARGES

@<TRIPOS>ATOM
      1 C1         -1.1962    1.5416    0.6954 C.3       1 <0>        -0.1768
      2 C2         -0.6602    0.1665    0.3905 C.2       1 <0>         0.4999
      3 O1          0.5179    0.0156    0.1448 O.2       1 <0>        -0.5139
      4 N1         -1.4899   -0.8956    0.3908 N.am      1 <0>        -0.7324
      5 C3         -0.9688   -2.2323    0.0944 C.3       1 <0>         0.1337
      6 C4         -0.3569   -2.2417   -1.3079 C.3       1 <0>        -0.0950
      7 H1          0.5423   -1.6262   -1.3349 H         1 <0>         0.1146
      8 C5         -0.0351   -3.6911   -1.7492 C.3       1 <0>        -0.0807
      9 C6         -0.0274   -3.5842   -3.2944 C.3       1 <0>        -0.1571
     10 C7         -1.1741   -2.6022   -3.6114 C.3       1 <0>        -0.1124
     11 C8         -1.3824   -1.7452   -2.3479 C.3       1 <0>         0.1161
     12 H2         -2.3950   -1.8810   -1.9680 H         1 <0>         0.1020
     13 N2         -1.1451   -0.3318   -2.6516 N.pl3     1 <0>        -0.6382
     14 C9         -2.1202    0.4130   -3.0913 C.cat     1 <0>         0.7312
     15 N3         -3.3715   -0.1278   -3.2701 N.pl3     1 <0>        -0.8142
     16 N4         -1.8974    1.7393   -3.3763 N.pl3     1 <0>        -0.8222
     17 C10        -0.2977   -4.9295   -3.9175 C.2       1 <0>         0.4959
     18 O2         -0.8589   -4.9993   -4.9976 O.co2     1 <0>        -0.6962
     19 O3          0.0448   -5.9480   -3.3415 O.co2     1 <0>        -0.6831
     20 C11         0.0876   -2.5953    1.1059 C.2       1 <0>         0.5156
     21 O4          1.1638   -3.0141    0.7352 O.2       1 <0>        -0.4962
     22 N5         -0.1635   -2.4546    2.4226 N.am      1 <0>        -0.6152
     23 C12        -1.5058   -2.0754    2.8661 C.3       1 <0>         0.1063
     24 C13        -2.1287   -3.2323    3.6558 C.3       1 <0>        -0.1092
     25 S1         -1.0336   -3.6418    5.0483 S.3       1 <0>        -0.2500
     26 C14         0.5743   -3.9126    4.2440 C.3       1 <0>        -0.1008
     27 C15         0.9080   -2.6887    3.3919 C.3       1 <0>         0.1127
     28 H3         -0.3839    2.2668    0.6486 H         1 <0>         0.0976
     29 H4         -1.9603    1.8041   -0.0362 H         1 <0>         0.0814
     30 H5         -1.6322    1.5483    1.6944 H         1 <0>         0.0944
     31 H6         -2.4321   -0.7749    0.5873 H         1 <0>         0.4054
     32 H7         -1.7812   -2.9575    0.1412 H         1 <0>         0.1223
     33 H8          0.9423   -3.9998   -1.3785 H         1 <0>         0.0915
     34 H9         -0.8115   -4.3785   -1.4134 H         1 <0>         0.0713
     35 H10         0.9245   -3.1849   -3.6444 H         1 <0>         0.0744
     36 H11        -0.8982   -1.9646   -4.4513 H         1 <0>         0.0706
     37 H12        -2.0847   -3.1541   -3.8443 H         1 <0>         0.0922
     38 H13        -3.5287   -1.0636   -3.0690 H         1 <0>         0.4379
     39 H14        -4.0972    0.4264   -3.5973 H         1 <0>         0.4338
     40 H15        -1.0146    2.1209   -3.2502 H         1 <0>         0.4356
     41 H16        -2.6231    2.2936   -3.7035 H         1 <0>         0.4347
     42 H17        -1.4424   -1.1932    3.5031 H         1 <0>         0.0833
     43 H18        -2.1260   -1.8528    1.9978 H         1 <0>         0.0943
     44 H19        -3.1056   -2.9323    4.0348 H         1 <0>         0.1184
     45 H20        -2.2364   -4.1017    3.0073 H         1 <0>         0.0892
     46 H21         1.3441   -4.0522    5.0031 H         1 <0>         0.1199
     47 H22         0.5207   -4.7956    3.6073 H         1 <0>         0.0909
     48 H23         1.8451   -2.8618    2.8629 H         1 <0>         0.1073
     49 H24         1.0109   -1.8166    4.0375 H         1 <0>         0.0821
     50 H25        -0.2622    0.0497   -2.5254 H         1 <0>         0.4370
@<TRIPOS>BOND
     1    1    2 1
     2    1   28 1
     3    1   29 1
     4    1   30 1
     5    2    3 2
     6    2    4 am
     7    4    5 1
     8    4   31 1
     9    5    6 1
    10    5   20 1
    11    5   32 1
    12    6    7 1
    13    6   11 1
    14    6    8 1
    15    8    9 1
    16    8   33 1
    17    8   34 1
    18    9   10 1
    19    9   17 1
    20    9   35 1
    21   10   11 1
    22   10   36 1
    23   10   37 1
    24   11   12 1
    25   11   13 1
    26   13   14 2
    27   13   50 1
    28   14   15 1
    29   14   16 1
    30   15   38 1
    31   15   39 1
    32   16   40 1
    33   16   41 1
    34   17   18 2
    35   17   19 1
    36   20   21 2
    37   20   22 am
    38   22   27 1
    39   22   23 1
    40   23   24 1
    41   23   42 1
    42   23   43 1
    43   24   25 1
    44   24   44 1
    45   24   45 1
    46   25   26 1
    47   26   27 1
    48   26   46 1
    49   26   47 1
    50   27   48 1
    51   27   49 1
@<TRIPOS>MOLECULE
CHEMBL411601__3
   50    51     0     0     0
SMALL
USER_CHARGES

@<TRIPOS>ATOM
      1 C1         -1.0903    1.6938    0.2848 C.3       1 <0>        -0.1765
      2 C2         -0.6573    0.2637    0.0890 C.2       1 <0>         0.4988
      3 O1          0.5043    0.0089   -0.1493 O.2       1 <0>        -0.5113
      4 N1         -1.5610   -0.7323    0.1786 N.am      1 <0>        -0.7323
      5 C3         -1.1401   -2.1225   -0.0118 C.3       1 <0>         0.1331
      6 C4         -0.5451   -2.2882   -1.4116 C.3       1 <0>        -0.0886
      7 H1          0.3983   -1.7468   -1.4825 H         1 <0>         0.1149
      8 C5         -0.3209   -3.7798   -1.7160 C.3       1 <0>        -0.0892
      9 C6         -1.1836   -4.1120   -2.9510 C.3       1 <0>        -0.1573
     10 C7         -1.3743   -2.7478   -3.6593 C.3       1 <0>        -0.1118
     11 C8         -1.5356   -1.7649   -2.4722 C.3       1 <0>         0.1154
     12 H2         -2.5556   -1.7941   -2.0888 H         1 <0>         0.1061
     13 N2         -1.1785   -0.4038   -2.8799 N.pl3     1 <0>        -0.6364
     14 C9         -2.0913    0.3934   -3.3598 C.cat     1 <0>         0.7315
     15 N3         -3.3891   -0.0431   -3.4834 N.pl3     1 <0>        -0.8160
     16 N4         -1.7562    1.6706   -3.7425 N.pl3     1 <0>        -0.8213
     17 C10        -0.4618   -5.0788   -3.8539 C.2       1 <0>         0.4957
     18 O2         -1.0760   -5.9825   -4.3947 O.co2     1 <0>        -0.6906
     19 O3          0.7364   -4.9572   -4.0437 O.co2     1 <0>        -0.6844
     20 C11        -0.1019   -2.4790    1.0207 C.2       1 <0>         0.5119
     21 O4          0.9763   -2.9115    0.6724 O.2       1 <0>        -0.4917
     22 N5         -0.3715   -2.3171    2.3313 N.am      1 <0>        -0.6169
     23 C12        -1.7224   -1.9402    2.7502 C.3       1 <0>         0.1103
     24 C13        -2.3474   -3.0876    3.5520 C.3       1 <0>        -0.1092
     25 S1         -1.2681   -3.4645    4.9657 S.3       1 <0>        -0.2489
     26 C14         0.3524   -3.7374    4.1877 C.3       1 <0>        -0.1008
     27 C15         0.6885   -2.5262    3.3187 C.3       1 <0>         0.1126
     28 H3         -0.2286    2.3524    0.1760 H         1 <0>         0.0977
     29 H4         -1.8412    1.9516   -0.4620 H         1 <0>         0.0808
     30 H5         -1.5142    1.8118    1.2820 H         1 <0>         0.0942
     31 H6         -2.4900   -0.5285    0.3691 H         1 <0>         0.4047
     32 H7         -2.0017   -2.7812    0.0970 H         1 <0>         0.1199
     33 H8          0.7311   -3.9621   -1.9354 H         1 <0>         0.0986
     34 H9         -0.6360   -4.3856   -0.8664 H         1 <0>         0.0593
     35 H10        -2.1466   -4.5208   -2.6448 H         1 <0>         0.0725
     36 H11        -0.4958   -2.4947   -4.2529 H         1 <0>         0.0881
     37 H12        -2.2711   -2.7562   -4.2787 H         1 <0>         0.0740
     38 H13        -3.6255   -0.9442   -3.2134 H         1 <0>         0.4369
     39 H14        -4.0684    0.5502   -3.8405 H         1 <0>         0.4338
     40 H15        -0.8405    1.9786   -3.6553 H         1 <0>         0.4363
     41 H16        -2.4354    2.2639   -4.0996 H         1 <0>         0.4348
     42 H17        -1.6738   -1.0465    3.3724 H         1 <0>         0.0846
     43 H18        -2.3325   -1.7374    1.8700 H         1 <0>         0.0898
     44 H19        -3.3314   -2.7882    3.9126 H         1 <0>         0.1189
     45 H20        -2.4402   -3.9690    2.9175 H         1 <0>         0.0890
     46 H21         1.1128   -3.8580    4.9592 H         1 <0>         0.1201
     47 H22         0.3136   -4.6318    3.5660 H         1 <0>         0.0904
     48 H23         1.6339   -2.7016    2.8053 H         1 <0>         0.1073
     49 H24         0.7765   -1.6421    3.9501 H         1 <0>         0.0825
     50 H25        -0.2628   -0.0959   -2.7927 H         1 <0>         0.4389
@<TRIPOS>BOND
     1    1    2 1
     2    1   28 1
     3    1   29 1
     4    1   30 1
     5    2    3 2
     6    2    4 am
     7    4    5 1
     8    4   31 1
     9    5    6 1
    10    5   20 1
    11    5   32 1
    12    6    7 1
    13    6   11 1
    14    6    8 1
    15    8    9 1
    16    8   33 1
    17    8   34 1
    18    9   10 1
    19    9   17 1
    20    9   35 1
    21   10   11 1
    22   10   36 1
    23   10   37 1
    24   11   12 1
    25   11   13 1
    26   13   14 2
    27   13   50 1
    28   14   15 1
    29   14   16 1
    30   15   38 1
    31   15   39 1
    32   16   40 1
    33   16   41 1
    34   17   18 2
    35   17   19 1
    36   20   21 2
    37   20   22 am
    38   22   27 1
    39   22   23 1
    40   23   24 1
    41   23   42 1
    42   23   43 1
    43   24   25 1
    44   24   44 1
    45   24   45 1
    46   25   26 1
    47   26   27 1
    48   26   46 1
    49   26   47 1
    50   27   48 1
    51   27   49 1
@<TRIPOS>MOLECULE
CHEMBL317571
   52    53     0     0     0
SMALL
USER_CHARGES

@<TRIPOS>ATOM
      1 C1         -0.0436    1.5762    0.0078 C.3       1 <0>        -0.1810
      2 C2         -0.0086    0.0466    0.0229 C.3       1 <0>         0.0941
      3 N1          0.5759   -0.4408   -1.2289 N.am      1 <0>        -0.6071
      4 C3          2.0061   -0.7505   -1.2978 C.3       1 <0>         0.1278
      5 C4          2.2291   -2.2166   -0.9212 C.3       1 <0>        -0.0980
      6 C5          3.7004   -2.5352   -0.9921 C.ar      1 <0>        -0.0819
      7 C6          4.2529   -2.9898   -2.1749 C.ar      1 <0>        -0.1115
      8 C7          5.6024   -3.2820   -2.2399 C.ar      1 <0>        -0.1171
      9 C8          6.3995   -3.1193   -1.1223 C.ar      1 <0>        -0.1227
     10 C9          5.8472   -2.6638    0.0602 C.ar      1 <0>        -0.1196
     11 C10         4.4985   -2.3675    0.1240 C.ar      1 <0>        -0.1174
     12 C11        -0.2023   -0.6043   -2.3171 C.2       1 <0>         0.5266
     13 O1          0.2563   -1.1085   -3.3203 O.2       1 <0>        -0.4794
     14 C12        -1.6422   -0.1606   -2.2874 C.3       1 <0>         0.0542
     15 H1         -1.9022    0.1757   -1.2838 H         1 <0>         0.1014
     16 C13        -1.8510    0.9849   -3.2871 C.3       1 <0>         0.0974
     17 H2         -1.6523    0.6309   -4.2986 H         1 <0>         0.1346
     18 C14        -3.3054    1.4555   -3.1808 C.3       1 <0>         0.0888
     19 H3         -3.4416    2.0078   -2.2510 H         1 <0>         0.1443
     20 C15        -4.2207    0.2613   -3.1936 C.2       1 <0>        -0.3737
     21 C16        -3.7860   -0.9665   -2.9440 C.2       1 <0>         0.1417
     22 O2         -2.4897   -1.2489   -2.6658 O.3       1 <0>        -0.2588
     23 C17        -4.7553   -2.0731   -2.9697 C.2       1 <0>         0.5224
     24 O3         -5.9325   -1.8496   -3.2174 O.co2     1 <0>        -0.6484
     25 O4         -4.3841   -3.2168   -2.7433 O.co2     1 <0>        -0.6336
     26 N2         -3.6224    2.3278   -4.3195 N.4       1 <0>        -0.6266
     27 N3         -0.9478    2.0925   -2.9650 N.am      1 <0>        -0.7459
     28 C18         0.2781    2.1462   -3.5225 C.2       1 <0>         0.5042
     29 O5          0.5982    1.3326   -4.3630 O.2       1 <0>        -0.4929
     30 C19         1.2510    3.2173   -3.1015 C.3       1 <0>        -0.1710
     31 H4          0.9754    1.9628   -0.0069 H         1 <0>         0.0641
     32 H5         -0.5750    1.9187   -0.8801 H         1 <0>         0.0545
     33 H6         -0.5562    1.9367    0.8997 H         1 <0>         0.0735
     34 H7          0.5960   -0.2946    0.8633 H         1 <0>         0.0912
     35 H8         -1.0229   -0.3391    0.1248 H         1 <0>         0.0806
     36 H9          2.3670   -0.5769   -2.3116 H         1 <0>         0.0864
     37 H10         2.5504   -0.1102   -0.6037 H         1 <0>         0.0796
     38 H11         1.8682   -2.3903    0.0925 H         1 <0>         0.0747
     39 H12         1.6849   -2.8569   -1.6154 H         1 <0>         0.0812
     40 H13         3.6302   -3.1170   -3.0481 H         1 <0>         0.1235
     41 H14         6.0340   -3.6379   -3.1638 H         1 <0>         0.1225
     42 H15         7.4538   -3.3483   -1.1729 H         1 <0>         0.1213
     43 H16         6.4699   -2.5370    0.9335 H         1 <0>         0.1216
     44 H17         4.0676   -2.0081    1.0469 H         1 <0>         0.1200
     45 H18        -5.2677    0.4092   -3.4134 H         1 <0>         0.1660
     46 H19        -3.4964    1.8165   -5.1801 H         1 <0>         0.4374
     47 H20        -4.5801    2.6377   -4.2494 H         1 <0>         0.4402
     48 H21        -1.2320    2.7871   -2.3505 H         1 <0>         0.4053
     49 H22         0.8235    3.7946   -2.2817 H         1 <0>         0.0783
     50 H23         2.1816    2.7542   -2.7733 H         1 <0>         0.1011
     51 H24         1.4517    3.8778   -3.9450 H         1 <0>         0.1001
     52 H25        -3.0084    3.1285   -4.3109 H         1 <0>         0.4262
@<TRIPOS>BOND
     1    1    2 1
     2    1   31 1
     3    1   32 1
     4    1   33 1
     5    2    3 1
     6    2   34 1
     7    2   35 1
     8    3    4 1
     9    3   12 am
    10    4    5 1
    11    4   36 1
    12    4   37 1
    13    5    6 1
    14    5   38 1
    15    5   39 1
    16    6   11 ar
    17    6    7 ar
    18    7    8 ar
    19    7   40 1
    20    8    9 ar
    21    8   41 1
    22    9   10 ar
    23    9   42 1
    24   10   11 ar
    25   10   43 1
    26   11   44 1
    27   12   13 2
    28   12   14 1
    29   14   15 1
    30   14   22 1
    31   14   16 1
    32   16   17 1
    33   16   18 1
    34   16   27 1
    35   18   19 1
    36   18   20 1
    37   18   26 1
    38   20   21 2
    39   20   45 1
    40   21   22 1
    41   21   23 1
    42   23   24 2
    43   23   25 1
    44   26   46 1
    45   26   47 1
    46   26   52 1
    47   27   28 am
    48   27   48 1
    49   28   29 2
    50   28   30 1
    51   30   49 1
    52   30   50 1
    53   30   51 1
@<TRIPOS>MOLECULE
CHEMBL317571__1
   51    52     0     0     0
SMALL
USER_CHARGES

@<TRIPOS>ATOM
      1 C1          0.0309    0.8079    0.7724 C.3       1 <0>        -0.1574
      2 C2         -0.2734   -0.6351    0.3645 C.3       1 <0>         0.1079
      3 N1          0.4768   -0.9681   -0.8489 N.am      1 <0>        -0.5938
      4 C3          1.8634   -1.4302   -0.7491 C.3       1 <0>         0.1230
      5 C4          1.8853   -2.9550   -0.6250 C.3       1 <0>        -0.0956
      6 C5          3.3117   -3.4302   -0.5223 C.ar      1 <0>        -0.0753
      7 C6          4.0214   -3.7391   -1.6676 C.ar      1 <0>        -0.1131
      8 C7          5.3298   -4.1751   -1.5735 C.ar      1 <0>        -0.1195
      9 C8          5.9286   -4.3017   -0.3341 C.ar      1 <0>        -0.1270
     10 C9          5.2192   -3.9920    0.8112 C.ar      1 <0>        -0.1195
     11 C10         3.9122   -3.5519    0.7168 C.ar      1 <0>        -0.1161
     12 C11        -0.1087   -0.8495   -2.0570 C.2       1 <0>         0.5416
     13 O1          0.4770   -1.2169   -3.0535 O.2       1 <0>        -0.5401
     14 C12        -1.4911   -0.2603   -2.1698 C.3       1 <0>         0.0514
     15 H1         -1.6239    0.1783   -3.1588 H         1 <0>         0.1004
     16 C13        -2.5407   -1.3572   -1.9454 C.3       1 <0>         0.1246
     17 H2         -2.4491   -1.7521   -0.9335 H         1 <0>         0.1147
     18 C14        -3.9297   -0.7385   -2.1348 C.3       1 <0>         0.1304
     19 H3         -4.1008   -0.5469   -3.1941 H         1 <0>         0.0373
     20 C15        -4.0101    0.5557   -1.3716 C.2       1 <0>        -0.2500
     21 C16        -2.9286    1.1991   -0.9530 C.2       1 <0>         0.0338
     22 O2         -1.6695    0.7455   -1.1686 O.3       1 <0>        -0.2710
     23 C17        -3.1032    2.4635   -0.2213 C.2       1 <0>         0.5363
     24 O3         -4.2273    2.8988   -0.0115 O.co2     1 <0>        -0.6686
     25 O4         -2.1243    3.0798    0.1774 O.co2     1 <0>        -0.6620
     26 N2         -4.9519   -1.6669   -1.6337 N.3       1 <0>        -0.8266
     27 N3         -2.3430   -2.4362   -2.9164 N.am      1 <0>        -0.7241
     28 C18        -2.6951   -3.6986   -2.6020 C.2       1 <0>         0.5058
     29 O5         -3.2548   -3.9281   -1.5508 O.2       1 <0>        -0.5265
     30 C19        -2.3933   -4.8250   -3.5566 C.3       1 <0>        -0.1702
     31 H4          1.0788    0.8906    1.0607 H         1 <0>         0.0373
     32 H5         -0.1682    1.4727   -0.0682 H         1 <0>         0.0935
     33 H6         -0.6011    1.0882    1.6150 H         1 <0>         0.0671
     34 H7          0.0192   -1.3095    1.1693 H         1 <0>         0.0650
     35 H8         -1.3411   -0.7408    0.1721 H         1 <0>         0.0883
     36 H9          2.4114   -1.1305   -1.6424 H         1 <0>         0.0830
     37 H10         2.3316   -0.9873    0.1300 H         1 <0>         0.0802
     38 H11         1.3373   -3.2546    0.2684 H         1 <0>         0.0737
     39 H12         1.4171   -3.3978   -1.5040 H         1 <0>         0.0760
     40 H13         3.5535   -3.6402   -2.6360 H         1 <0>         0.1226
     41 H14         5.8840   -4.4171   -2.4683 H         1 <0>         0.1201
     42 H15         6.9507   -4.6430   -0.2605 H         1 <0>         0.1188
     43 H16         5.6870   -4.0913    1.7796 H         1 <0>         0.1204
     44 H17         3.3591   -3.3064    1.6114 H         1 <0>         0.1219
     45 H18        -4.9820    0.9753   -1.1576 H         1 <0>         0.1368
     46 H19        -5.8774   -1.2815   -1.7476 H         1 <0>         0.3400
     47 H20        -4.8765   -2.5660   -2.0856 H         1 <0>         0.3401
     48 H21        -1.9587   -2.2421   -3.7856 H         1 <0>         0.4034
     49 H22        -1.8138   -4.4434   -4.3972 H         1 <0>         0.0752
     50 H23        -1.8204   -5.5952   -3.0402 H         1 <0>         0.0935
     51 H24        -3.3273   -5.2511   -3.9228 H         1 <0>         0.0927
@<TRIPOS>BOND
     1    1    2 1
     2    1   31 1
     3    1   32 1
     4    1   33 1
     5    2    3 1
     6    2   34 1
     7    2   35 1
     8    3    4 1
     9    3   12 am
    10    4    5 1
    11    4   36 1
    12    4   37 1
    13    5    6 1
    14    5   38 1
    15    5   39 1
    16    6   11 ar
    17    6    7 ar
    18    7    8 ar
    19    7   40 1
    20    8    9 ar
    21    8   41 1
    22    9   10 ar
    23    9   42 1
    24   10   11 ar
    25   10   43 1
    26   11   44 1
    27   12   13 2
    28   12   14 1
    29   14   15 1
    30   14   22 1
    31   14   16 1
    32   16   17 1
    33   16   18 1
    34   16   27 1
    35   18   19 1
    36   18   20 1
    37   18   26 1
    38   20   21 2
    39   20   45 1
    40   21   22 1
    41   21   23 1
    42   23   24 2
    43   23   25 1
    44   26   46 1
    45   26   47 1
    46   27   28 am
    47   27   48 1
    48   28   29 2
    49   28   30 1
    50   30   49 1
    51   30   50 1
    52   30   51 1
@<TRIPOS>MOLECULE
CHEMBL57348
   37    38     0     0     0
SMALL
USER_CHARGES

@<TRIPOS>ATOM
      1 C1         -0.0184    1.5028    0.0103 C.3       1 <0>        -0.1669
      2 C2          0.0021   -0.0041    0.0020 C.2       1 <0>         0.5080
      3 O1          0.0203   -0.6160    1.0489 O.2       1 <0>        -0.5580
      4 N1          0.0001   -0.6716   -1.1688 N.am      1 <0>        -0.6964
      5 C3          0.0199   -2.1365   -1.1769 C.3       1 <0>         0.0774
      6 C4          0.6239   -2.6311   -2.4927 C.3       1 <0>        -0.0794
      7 H1          1.6392   -2.2546   -2.6170 H         1 <0>         0.0690
      8 C5         -0.2658   -2.2244   -3.6948 C.3       1 <0>        -0.1231
      9 C6          0.0769   -3.2711   -4.7753 C.3       1 <0>        -0.0901
     10 C7          0.6186   -4.4868   -4.0526 C.2       1 <0>         0.0218
     11 C8          1.0403   -5.6179   -4.6168 C.2       1 <0>        -0.1884
     12 S1          1.6448   -6.9645   -3.6373 S.3       1 <0>        -0.1331
     13 C9          0.7275   -8.3866   -4.2983 C.3       1 <0>        -0.1091
     14 C10         0.9783   -8.5099   -5.7979 C.3       1 <0>        -0.1212
     15 C11         0.2062   -7.4465   -6.5727 C.3       1 <0>        -0.1084
     16 S2          1.0110   -5.8355   -6.3747 S.3       1 <0>        -0.1432
     17 C12         0.5975   -4.1781   -2.5638 C.3       1 <0>        -0.1065
     18 C13        -1.3873   -2.6587   -1.0424 C.2       1 <0>         0.4975
     19 O2         -2.3325   -1.8937   -1.1316 O.co2     1 <0>        -0.6846
     20 O3         -1.5806   -3.8461   -0.8444 O.co2     1 <0>        -0.6883
     21 H2          1.0042    1.8801    0.0026 H         1 <0>         0.0836
     22 H3         -0.5455    1.8639   -0.8728 H         1 <0>         0.0754
     23 H4         -0.5286    1.8543    0.9071 H         1 <0>         0.0863
     24 H5         -0.0145   -0.1822   -2.0061 H         1 <0>         0.3907
     25 H6          0.6223   -2.4962   -0.3427 H         1 <0>         0.0819
     26 H7         -1.3208   -2.2817   -3.4271 H         1 <0>         0.0889
     27 H8         -0.0106   -1.2219   -4.0383 H         1 <0>         0.0653
     28 H9         -0.8207   -3.5384   -5.3329 H         1 <0>         0.0869
     29 H10         0.8322   -2.8733   -5.4530 H         1 <0>         0.0794
     30 H11         1.0605   -9.2966   -3.7990 H         1 <0>         0.1111
     31 H12        -0.3384   -8.2453   -4.1194 H         1 <0>         0.0861
     32 H13         2.0441   -8.3915   -5.9933 H         1 <0>         0.0872
     33 H14         0.6617   -9.4974   -6.1336 H         1 <0>         0.0808
     34 H15         0.1827   -7.7134   -7.6293 H         1 <0>         0.1102
     35 H16        -0.8133   -7.3889   -6.1914 H         1 <0>         0.0848
     36 H17         1.4757   -4.5968   -2.0723 H         1 <0>         0.0742
     37 H18        -0.3147   -4.5646   -2.1094 H         1 <0>         0.1502
@<TRIPOS>BOND
     1    1    2 1
     2    1   21 1
     3    1   22 1
     4    1   23 1
     5    2    3 2
     6    2    4 am
     7    4    5 1
     8    4   24 1
     9    5    6 1
    10    5   18 1
    11    5   25 1
    12    6    7 1
    13    6   17 1
    14    6    8 1
    15    8    9 1
    16    8   26 1
    17    8   27 1
    18    9   10 1
    19    9   28 1
    20    9   29 1
    21   10   11 2
    22   10   17 1
    23   11   16 1
    24   11   12 1
    25   12   13 1
    26   13   14 1
    27   13   30 1
    28   13   31 1
    29   14   15 1
    30   14   32 1
    31   14   33 1
    32   15   16 1
    33   15   34 1
    34   15   35 1
    35   17   36 1
    36   17   37 1
    37   18   19 2
    38   18   20 1
@<TRIPOS>MOLECULE
CHEMBL57348__1
   37    38     0     0     0
SMALL
USER_CHARGES

@<TRIPOS>ATOM
      1 C1         -0.0184    1.5028    0.0103 C.3       1 <0>        -0.1671
      2 C2          0.0021   -0.0041    0.0020 C.2       1 <0>         0.5038
      3 O1          0.0203   -0.6160    1.0489 O.2       1 <0>        -0.5565
      4 N1          0.0001   -0.6716   -1.1688 N.am      1 <0>        -0.6962
      5 C3          0.0199   -2.1365   -1.1769 C.3       1 <0>         0.0832
      6 C4         -0.5952   -2.6477   -2.4812 C.3       1 <0>        -0.0806
      7 H1         -0.0411   -2.2734   -3.3420 H         1 <0>         0.0804
      8 C5         -2.0915   -2.2553   -2.5758 C.3       1 <0>        -0.1176
      9 C6         -2.6893   -3.3155   -3.5240 C.3       1 <0>        -0.0909
     10 C7         -1.7766   -4.5225   -3.4641 C.2       1 <0>         0.0077
     11 C8         -1.9274   -5.6608   -4.1403 C.2       1 <0>        -0.1786
     12 S1         -0.7763   -6.9956   -3.9624 S.3       1 <0>        -0.1221
     13 C9         -1.8594   -8.4252   -3.6726 C.3       1 <0>        -0.1117
     14 C10        -2.8457   -8.5671   -4.8277 C.3       1 <0>        -0.1230
     15 C11        -3.9451   -7.5129   -4.7433 C.3       1 <0>        -0.1076
     16 S2         -3.2906   -5.9000   -5.2460 S.3       1 <0>        -0.1405
     17 C12        -0.6526   -4.1955   -2.4936 C.3       1 <0>        -0.0742
     18 C13         1.4431   -2.6201   -1.0692 C.2       1 <0>         0.4923
     19 O2          1.6857   -3.6853   -0.5278 O.co2     1 <0>        -0.6890
     20 O3          2.3520   -1.9463   -1.5236 O.co2     1 <0>        -0.6931
     21 H2          1.0042    1.8801    0.0026 H         1 <0>         0.0888
     22 H3         -0.5455    1.8639   -0.8728 H         1 <0>         0.0729
     23 H4         -0.5286    1.8543    0.9071 H         1 <0>         0.0847
     24 H5         -0.0145   -0.1822   -2.0061 H         1 <0>         0.3920
     25 H6         -0.5565   -2.5123   -0.3315 H         1 <0>         0.0818
     26 H7         -2.5642   -2.3086   -1.5951 H         1 <0>         0.0712
     27 H8         -2.1996   -1.2573   -3.0004 H         1 <0>         0.0699
     28 H9         -3.6910   -3.5891   -3.1926 H         1 <0>         0.0864
     29 H10        -2.7265   -2.9266   -4.5416 H         1 <0>         0.0821
     30 H11        -1.2547   -9.3291   -3.5991 H         1 <0>         0.1126
     31 H12        -2.4089   -8.2810   -2.7424 H         1 <0>         0.0846
     32 H13        -2.3112   -8.4518   -5.7706 H         1 <0>         0.0884
     33 H14        -3.2974   -9.5585   -4.7926 H         1 <0>         0.0815
     34 H15        -4.7671   -7.7928   -5.4021 H         1 <0>         0.1110
     35 H16        -4.3090   -7.4499   -3.7177 H         1 <0>         0.0840
     36 H17         0.2922   -4.6086   -2.8468 H         1 <0>         0.0889
     37 H18        -0.8875   -4.5757   -1.4995 H         1 <0>         0.1003
@<TRIPOS>BOND
     1    1    2 1
     2    1   21 1
     3    1   22 1
     4    1   23 1
     5    2    3 2
     6    2    4 am
     7    4    5 1
     8    4   24 1
     9    5    6 1
    10    5   18 1
    11    5   25 1
    12    6    7 1
    13    6   17 1
    14    6    8 1
    15    8    9 1
    16    8   26 1
    17    8   27 1
    18    9   10 1
    19    9   28 1
    20    9   29 1
    21   10   11 2
    22   10   17 1
    23   11   16 1
    24   11   12 1
    25   12   13 1
    26   13   14 1
    27   13   30 1
    28   13   31 1
    29   14   15 1
    30   14   32 1
    31   14   33 1
    32   15   16 1
    33   15   34 1
    34   15   35 1
    35   17   36 1
    36   17   37 1
    37   18   19 2
    38   18   20 1
@<TRIPOS>MOLECULE
CHEMBL293591
   55    56     0     0     0
SMALL
USER_CHARGES

@<TRIPOS>ATOM
      1 C1         -0.3076    1.4633   -0.7043 C.3       1 <0>        -0.1689
      2 C2         -0.1780   -0.0282   -0.5322 C.2       1 <0>         0.4962
      3 O1          0.8840   -0.5734   -0.7467 O.2       1 <0>        -0.4558
      4 N1         -1.2421   -0.7564   -0.1400 N.am      1 <0>        -0.7385
      5 C3         -1.1576   -2.2186   -0.1082 C.3       1 <0>         0.1404
      6 C4         -0.2539   -2.6522    1.0478 C.3       1 <0>        -0.1079
      7 H1          0.1367   -3.6542    0.8704 H         1 <0>         0.0944
      8 C5          0.9064   -1.6436    1.2365 C.3       1 <0>        -0.0717
      9 C6          1.3117   -1.8617    2.7155 C.3       1 <0>        -0.1689
     10 C7         -0.0277   -2.0957    3.4443 C.3       1 <0>        -0.1103
     11 C8         -1.0242   -2.6016    2.3835 C.3       1 <0>         0.1123
     12 H2         -1.8654   -1.9131    2.3036 H         1 <0>         0.1050
     13 N2         -1.5025   -3.9402    2.7379 N.pl3     1 <0>        -0.6458
     14 C9         -2.5429   -4.0770    3.5110 C.cat     1 <0>         0.7346
     15 N3         -3.1914   -2.9651    3.9939 N.pl3     1 <0>        -0.8122
     16 N4         -2.9918   -5.3332    3.8436 N.pl3     1 <0>        -0.8211
     17 C10         2.0013   -0.6371    3.2595 C.2       1 <0>         0.4958
     18 O2          1.9134   -0.3639    4.4444 O.co2     1 <0>        -0.7008
     19 O3          2.6470    0.0803    2.5146 O.co2     1 <0>        -0.6778
     20 C11        -0.5830   -2.7170   -1.4091 C.2       1 <0>         0.4908
     21 O4          0.2224   -2.0419   -2.0145 O.2       1 <0>        -0.4707
     22 N5         -0.9641   -3.9130   -1.8999 N.am      1 <0>        -0.6108
     23 C12        -2.0173   -4.6361   -1.2229 C.3       1 <0>         0.1092
     24 C13        -1.4038   -5.5433   -0.1280 C.3       1 <0>        -0.1494
     25 C14        -0.6863   -6.6711   -0.7418 C.3       1 <0>        -0.1199
     26 C15         0.5038   -6.2637   -1.6052 C.3       1 <0>        -0.1189
     27 C16         0.0227   -5.9341   -2.9967 C.3       1 <0>        -0.1308
     28 C17        -0.2932   -4.4277   -3.1097 C.3       1 <0>         0.1126
     29 H3          0.6491    1.8767   -1.0234 H         1 <0>         0.0949
     30 H4         -1.0655    1.6776   -1.4579 H         1 <0>         0.0807
     31 H5         -0.6003    1.9143    0.2439 H         1 <0>         0.0851
     32 H6         -2.0640   -0.3123    0.1212 H         1 <0>         0.4010
     33 H7         -2.1541   -2.6371    0.0330 H         1 <0>         0.0995
     34 H8          1.7357   -1.8798    0.5698 H         1 <0>         0.0888
     35 H9          0.5602   -0.6224    1.0775 H         1 <0>         0.0928
     36 H10         1.9551   -2.7365    2.8096 H         1 <0>         0.0668
     37 H11         0.0978   -2.8467    4.2242 H         1 <0>         0.0688
     38 H12        -0.3846   -1.1618    3.8785 H         1 <0>         0.0910
     39 H13        -2.8747   -2.0788    3.7593 H         1 <0>         0.4387
     40 H14        -3.9657   -3.0669    4.5693 H         1 <0>         0.4346
     41 H15        -2.5342   -6.1177    3.5029 H         1 <0>         0.4349
     42 H16        -3.7661   -5.4350    4.4190 H         1 <0>         0.4356
     43 H17        -2.7065   -3.9278   -0.7632 H         1 <0>         0.0735
     44 H18        -2.5565   -5.2510   -1.9435 H         1 <0>         0.0837
     45 H19        -0.7092   -4.9599    0.4765 H         1 <0>         0.0631
     46 H20        -2.1996   -5.9266    0.5106 H         1 <0>         0.0673
     47 H21        -0.3295   -7.3275    0.0519 H         1 <0>         0.0596
     48 H22        -1.3871   -7.2315   -1.3606 H         1 <0>         0.0639
     49 H23         0.9859   -5.3883   -1.1702 H         1 <0>         0.0670
     50 H24         1.2173   -7.0864   -1.6525 H         1 <0>         0.0670
     51 H25         0.7964   -6.1962   -3.7183 H         1 <0>         0.0781
     52 H26        -0.8792   -6.5069   -3.2125 H         1 <0>         0.0655
     53 H27        -0.9402   -4.2616   -3.9710 H         1 <0>         0.0629
     54 H28         0.6379   -3.8807   -3.2578 H         1 <0>         0.0915
     55 H29        -1.0449   -4.7247    2.3972 H         1 <0>         0.4327
@<TRIPOS>BOND
     1    1    2 1
     2    1   29 1
     3    1   30 1
     4    1   31 1
     5    2    3 2
     6    2    4 am
     7    4    5 1
     8    4   32 1
     9    5    6 1
    10    5   20 1
    11    5   33 1
    12    6    7 1
    13    6   11 1
    14    6    8 1
    15    8    9 1
    16    8   34 1
    17    8   35 1
    18    9   10 1
    19    9   17 1
    20    9   36 1
    21   10   11 1
    22   10   37 1
    23   10   38 1
    24   11   12 1
    25   11   13 1
    26   13   14 2
    27   13   55 1
    28   14   15 1
    29   14   16 1
    30   15   39 1
    31   15   40 1
    32   16   41 1
    33   16   42 1
    34   17   18 2
    35   17   19 1
    36   20   21 2
    37   20   22 am
    38   22   28 1
    39   22   23 1
    40   23   24 1
    41   23   43 1
    42   23   44 1
    43   24   25 1
    44   24   45 1
    45   24   46 1
    46   25   26 1
    47   25   47 1
    48   25   48 1
    49   26   27 1
    50   26   49 1
    51   26   50 1
    52   27   28 1
    53   27   51 1
    54   27   52 1
    55   28   53 1
    56   28   54 1
@<TRIPOS>MOLECULE
CHEMBL293591__1
   55    56     0     0     0
SMALL
USER_CHARGES

@<TRIPOS>ATOM
      1 C1         -2.7787    0.4374   -2.3550 C.3       1 <0>        -0.1756
      2 C2         -1.7484   -0.4561   -1.7138 C.2       1 <0>         0.4913
      3 O1         -0.6284   -0.5184   -2.1750 O.2       1 <0>        -0.4634
      4 N1         -2.0715   -1.1860   -0.6279 N.am      1 <0>        -0.7300
      5 C3         -1.1212   -2.1647   -0.0938 C.3       1 <0>         0.1365
      6 C4         -0.1171   -1.4559    0.8174 C.3       1 <0>        -0.0898
      7 H1          0.8040   -2.0354    0.8797 H         1 <0>         0.0882
      8 C5          0.1822   -0.0468    0.2765 C.3       1 <0>        -0.1225
      9 C6         -0.2502    0.9475    1.3739 C.3       1 <0>        -0.1525
     10 C7         -0.2000    0.1169    2.6803 C.3       1 <0>        -0.1116
     11 C8         -0.7205   -1.2699    2.2249 C.3       1 <0>         0.1099
     12 H2         -1.8094   -1.2713    2.1764 H         1 <0>         0.1064
     13 N2         -0.2449   -2.3196    3.1295 N.pl3     1 <0>        -0.6413
     14 C9         -0.9555   -2.6548    4.1696 C.cat     1 <0>         0.7348
     15 N3         -2.1512   -2.0233    4.4177 N.pl3     1 <0>        -0.8154
     16 N4         -0.5091   -3.6398    5.0185 N.pl3     1 <0>        -0.8204
     17 C10         0.7130    2.1041    1.4469 C.2       1 <0>         0.4958
     18 O2          0.2945    3.2359    1.6217 O.co2     1 <0>        -0.6938
     19 O3          1.9108    1.9082    1.3313 O.co2     1 <0>        -0.6867
     20 C11        -0.3873   -2.8252   -1.2322 C.2       1 <0>         0.4850
     21 O4          0.4512   -2.2069   -1.8531 O.2       1 <0>        -0.4506
     22 N5         -0.6627   -4.1031   -1.5605 N.am      1 <0>        -0.6102
     23 C12        -1.7605   -4.7683   -0.8951 C.3       1 <0>         0.1081
     24 C13        -1.2468   -5.4557    0.3940 C.3       1 <0>        -0.1357
     25 C14        -0.4201   -6.6242    0.0553 C.3       1 <0>        -0.1195
     26 C15         0.8474   -6.2920   -0.7263 C.3       1 <0>        -0.1155
     27 C16         0.5217   -6.2133   -2.1974 C.3       1 <0>        -0.1318
     28 C17         0.1650   -4.7637   -2.5886 C.3       1 <0>         0.1138
     29 H3         -2.3369    0.9437   -3.2133 H         1 <0>         0.0957
     30 H4         -3.6263   -0.1635   -2.6843 H         1 <0>         0.0850
     31 H5         -3.1180    1.1784   -1.6312 H         1 <0>         0.0913
     32 H6         -2.9333   -1.0633   -0.1999 H         1 <0>         0.4037
     33 H7         -1.6604   -2.9201    0.4779 H         1 <0>         0.0966
     34 H8          1.2487    0.0578    0.0771 H         1 <0>         0.0850
     35 H9         -0.3879    0.1321   -0.6351 H         1 <0>         0.1095
     36 H10        -1.2631    1.3045    1.1876 H         1 <0>         0.0662
     37 H11         0.8221    0.0422    3.0515 H         1 <0>         0.0860
     38 H12        -0.8565    0.5467    3.4368 H         1 <0>         0.0713
     39 H13        -2.4661   -1.3283    3.8188 H         1 <0>         0.4373
     40 H14        -2.6800   -2.2728    5.1917 H         1 <0>         0.4343
     41 H15         0.3345   -4.0854    4.8434 H         1 <0>         0.4361
     42 H16        -1.0379   -3.8893    5.7925 H         1 <0>         0.4350
     43 H17        -2.5252   -4.0361   -0.6360 H         1 <0>         0.0740
     44 H18        -2.1875   -5.5183   -1.5609 H         1 <0>         0.0816
     45 H19        -0.6508   -4.7463    0.9682 H         1 <0>         0.0558
     46 H20        -2.0975   -5.7775    0.9948 H         1 <0>         0.0714
     47 H21        -0.1350   -7.1262    0.9798 H         1 <0>         0.0569
     48 H22        -1.0215   -7.3135   -0.5374 H         1 <0>         0.0629
     49 H23         1.2416   -5.3333   -0.3893 H         1 <0>         0.0638
     50 H24         1.5918   -7.0706   -0.5598 H         1 <0>         0.0648
     51 H25         1.3844   -6.5422   -2.7767 H         1 <0>         0.0777
     52 H26        -0.3263   -6.8626   -2.4151 H         1 <0>         0.0659
     53 H27        -0.3817   -4.7719   -3.5316 H         1 <0>         0.0620
     54 H28         1.0859   -4.1956   -2.7203 H         1 <0>         0.0903
     55 H29         0.5987   -2.7651    2.9544 H         1 <0>         0.4365
@<TRIPOS>BOND
     1    1    2 1
     2    1   29 1
     3    1   30 1
     4    1   31 1
     5    2    3 2
     6    2    4 am
     7    4    5 1
     8    4   32 1
     9    5    6 1
    10    5   20 1
    11    5   33 1
    12    6    7 1
    13    6   11 1
    14    6    8 1
    15    8    9 1
    16    8   34 1
    17    8   35 1
    18    9   10 1
    19    9   17 1
    20    9   36 1
    21   10   11 1
    22   10   37 1
    23   10   38 1
    24   11   12 1
    25   11   13 1
    26   13   14 2
    27   13   55 1
    28   14   15 1
    29   14   16 1
    30   15   39 1
    31   15   40 1
    32   16   41 1
    33   16   42 1
    34   17   18 2
    35   17   19 1
    36   20   21 2
    37   20   22 am
    38   22   28 1
    39   22   23 1
    40   23   24 1
    41   23   43 1
    42   23   44 1
    43   24   25 1
    44   24   45 1
    45   24   46 1
    46   25   26 1
    47   25   47 1
    48   25   48 1
    49   26   27 1
    50   26   49 1
    51   26   50 1
    52   27   28 1
    53   27   51 1
    54   27   52 1
    55   28   53 1
    56   28   54 1
@<TRIPOS>MOLECULE
CHEMBL293591__2
   55    56     0     0     0
SMALL
USER_CHARGES

@<TRIPOS>ATOM
      1 C1         -0.3045    1.5804   -0.3821 C.3       1 <0>        -0.1752
      2 C2         -0.1278    0.0953   -0.1964 C.2       1 <0>         0.4937
      3 O1          0.9858   -0.3759   -0.1035 O.2       1 <0>        -0.4858
      4 N1         -1.2073   -0.7091   -0.1337 N.am      1 <0>        -0.7303
      5 C3         -1.0356   -2.1527    0.0468 C.3       1 <0>         0.1323
      6 C4         -0.2200   -2.7188   -1.1173 C.3       1 <0>        -0.1077
      7 H1          0.7911   -2.3117   -1.1071 H         1 <0>         0.1160
      8 C5         -0.1821   -4.2658   -1.0510 C.3       1 <0>        -0.0890
      9 C6          0.1062   -4.6639   -2.5199 C.3       1 <0>        -0.1559
     10 C7         -0.7066   -3.6514   -3.3528 C.3       1 <0>        -0.1131
     11 C8         -0.9122   -2.4115   -2.4613 C.3       1 <0>         0.1188
     12 H2         -1.9766   -2.2390   -2.3022 H         1 <0>         0.1031
     13 N2         -0.3001   -1.2350   -3.0836 N.pl3     1 <0>        -0.6373
     14 C9         -0.9845   -0.5126   -3.9254 C.cat     1 <0>         0.7324
     15 N3         -2.2809   -0.8548   -4.2293 N.pl3     1 <0>        -0.8143
     16 N4         -0.4100    0.5914   -4.5095 N.pl3     1 <0>        -0.8219
     17 C10        -0.3680   -6.0690   -2.7883 C.2       1 <0>         0.4967
     18 O2         -0.7431   -6.3828   -3.9051 O.co2     1 <0>        -0.6935
     19 O3         -0.3766   -6.8918   -1.8887 O.co2     1 <0>        -0.6836
     20 C11        -0.3108   -2.4143    1.3419 C.2       1 <0>         0.4999
     21 O4          0.6868   -1.7819    1.6170 O.2       1 <0>        -0.4999
     22 N5         -0.7713   -3.3511    2.1945 N.am      1 <0>        -0.5985
     23 C12        -1.9043   -4.1553    1.7946 C.3       1 <0>         0.0928
     24 C13        -3.2166   -3.4542    2.2241 C.3       1 <0>        -0.1368
     25 C14        -3.3744   -3.5163    3.6853 C.3       1 <0>        -0.1206
     26 C15        -2.2844   -2.7890    4.4666 C.3       1 <0>        -0.1134
     27 C16        -1.1018   -3.7080    4.6491 C.3       1 <0>        -0.1324
     28 C17        -0.0945   -3.5176    3.4956 C.3       1 <0>         0.1126
     29 H3          0.6730    2.0620   -0.4090 H         1 <0>         0.0947
     30 H4         -0.8287    1.7696   -1.3189 H         1 <0>         0.0768
     31 H5         -0.8855    1.9837    0.4473 H         1 <0>         0.0891
     32 H6         -2.0980   -0.3322   -0.2080 H         1 <0>         0.4019
     33 H7         -2.0130   -2.6344    0.0737 H         1 <0>         0.1136
     34 H8          0.6192   -4.6048   -0.3945 H         1 <0>         0.0789
     35 H9         -1.1438   -4.6621   -0.7250 H         1 <0>         0.0801
     36 H10         1.1700   -4.5710   -2.7385 H         1 <0>         0.0751
     37 H11        -0.1526   -3.3760   -4.2502 H         1 <0>         0.0718
     38 H12        -1.6706   -4.0808   -3.6257 H         1 <0>         0.0934
     39 H13        -2.6863   -1.6338   -3.8173 H         1 <0>         0.4377
     40 H14        -2.7903   -0.3172   -4.8558 H         1 <0>         0.4337
     41 H15         0.5047    0.8328   -4.2951 H         1 <0>         0.4357
     42 H16        -0.9194    1.1290   -5.1359 H         1 <0>         0.4346
     43 H17        -1.8969   -4.2797    0.7117 H         1 <0>         0.0877
     44 H18        -1.8420   -5.1331    2.2723 H         1 <0>         0.0886
     45 H19        -3.1885   -2.4113    1.9084 H         1 <0>         0.0580
     46 H20        -4.0628   -3.9498    1.7484 H         1 <0>         0.0783
     47 H21        -4.3382   -3.0803    3.9481 H         1 <0>         0.0582
     48 H22        -3.3778   -4.5632    3.9888 H         1 <0>         0.0641
     49 H23        -1.9734   -1.9010    3.9162 H         1 <0>         0.0604
     50 H24        -2.6709   -2.4954    5.4426 H         1 <0>         0.0630
     51 H25        -0.6126   -3.4838    5.5970 H         1 <0>         0.0759
     52 H26        -1.4458   -4.7423    4.6579 H         1 <0>         0.0695
     53 H27         0.5601   -4.3877    3.4452 H         1 <0>         0.0665
     54 H28         0.5101   -2.6330    3.6958 H         1 <0>         0.0867
     55 H29         0.6146   -0.9936   -2.8692 H         1 <0>         0.4371
@<TRIPOS>BOND
     1    1    2 1
     2    1   29 1
     3    1   30 1
     4    1   31 1
     5    2    3 2
     6    2    4 am
     7    4    5 1
     8    4   32 1
     9    5    6 1
    10    5   20 1
    11    5   33 1
    12    6    7 1
    13    6   11 1
    14    6    8 1
    15    8    9 1
    16    8   34 1
    17    8   35 1
    18    9   10 1
    19    9   17 1
    20    9   36 1
    21   10   11 1
    22   10   37 1
    23   10   38 1
    24   11   12 1
    25   11   13 1
    26   13   14 2
    27   13   55 1
    28   14   15 1
    29   14   16 1
    30   15   39 1
    31   15   40 1
    32   16   41 1
    33   16   42 1
    34   17   18 2
    35   17   19 1
    36   20   21 2
    37   20   22 am
    38   22   28 1
    39   22   23 1
    40   23   24 1
    41   23   43 1
    42   23   44 1
    43   24   25 1
    44   24   45 1
    45   24   46 1
    46   25   26 1
    47   25   47 1
    48   25   48 1
    49   26   27 1
    50   26   49 1
    51   26   50 1
    52   27   28 1
    53   27   51 1
    54   27   52 1
    55   28   53 1
    56   28   54 1
@<TRIPOS>MOLECULE
CHEMBL293591__3
   55    56     0     0     0
SMALL
USER_CHARGES

@<TRIPOS>ATOM
      1 C1          0.3353    1.3748   -0.2095 C.3       1 <0>        -0.1742
      2 C2          0.2141   -0.1258   -0.1429 C.2       1 <0>         0.4920
      3 O1          1.2109   -0.8163   -0.1640 O.2       1 <0>        -0.4810
      4 N1         -1.0022   -0.7006   -0.0600 N.am      1 <0>        -0.7316
      5 C3         -1.1200   -2.1595    0.0046 C.3       1 <0>         0.1324
      6 C4         -0.5042   -2.7771   -1.2524 C.3       1 <0>        -0.1011
      7 H1          0.5284   -2.4461   -1.3632 H         1 <0>         0.1160
      8 C5         -0.5592   -4.3125   -1.1665 C.3       1 <0>        -0.1093
      9 C6         -1.4118   -4.7903   -2.3601 C.3       1 <0>        -0.1536
     10 C7         -1.3017   -3.6392   -3.3905 C.3       1 <0>        -0.1128
     11 C8         -1.3245   -2.3745   -2.4953 C.3       1 <0>         0.1161
     12 H2         -2.3474   -2.1255   -2.2130 H         1 <0>         0.1071
     13 N2         -0.6922   -1.2464   -3.1836 N.pl3     1 <0>        -0.6360
     14 C9         -1.4101   -0.4495   -3.9242 C.cat     1 <0>         0.7338
     15 N3         -2.7607   -0.6677   -4.0595 N.pl3     1 <0>        -0.8159
     16 N4         -0.8167    0.6092   -4.5701 N.pl3     1 <0>        -0.8211
     17 C10        -0.8498   -6.0661   -2.9324 C.2       1 <0>         0.4958
     18 O2         -1.6017   -6.9550   -3.2945 O.co2     1 <0>        -0.6892
     19 O3          0.3567   -6.2094   -3.0333 O.co2     1 <0>        -0.6849
     20 C11        -0.3929   -2.6687    1.2225 C.2       1 <0>         0.4992
     21 O4          0.7334   -2.2869    1.4600 O.2       1 <0>        -0.4940
     22 N5         -0.9944   -3.5483    2.0477 N.am      1 <0>        -0.6023
     23 C12        -2.2924   -4.0679    1.6796 C.3       1 <0>         0.0933
     24 C13        -3.4004   -3.1419    2.2393 C.3       1 <0>        -0.1360
     25 C14        -3.4876   -3.2757    3.7015 C.3       1 <0>        -0.1205
     26 C15        -2.2269   -2.8498    4.4478 C.3       1 <0>        -0.1137
     27 C16        -1.2582   -4.0056    4.4936 C.3       1 <0>        -0.1322
     28 C17        -0.2981   -3.9460    3.2869 C.3       1 <0>         0.1123
     29 H3          1.3876    1.6519   -0.2723 H         1 <0>         0.0951
     30 H4         -0.1906    1.7431   -1.0903 H         1 <0>         0.0777
     31 H5         -0.1034    1.8148    0.6861 H         1 <0>         0.0882
     32 H6         -1.7994   -0.1484   -0.0432 H         1 <0>         0.4009
     33 H7         -2.1723   -2.4365    0.0675 H         1 <0>         0.1113
     34 H8          0.4466   -4.7267   -1.2365 H         1 <0>         0.0955
     35 H9         -1.0247   -4.6176   -0.2293 H         1 <0>         0.0694
     36 H10        -2.4488   -4.9320   -2.0557 H         1 <0>         0.0742
     37 H11        -0.3644   -3.7037   -3.9431 H         1 <0>         0.0883
     38 H12        -2.1536   -3.6467   -4.0705 H         1 <0>         0.0753
     39 H13        -3.1794   -1.4146   -3.6037 H         1 <0>         0.4369
     40 H14        -3.2950   -0.0746   -4.6106 H         1 <0>         0.4339
     41 H15         0.1363    0.7631   -4.4747 H         1 <0>         0.4361
     42 H16        -1.3509    1.2022   -5.1213 H         1 <0>         0.4348
     43 H17        -2.3709   -4.1123    0.5933 H         1 <0>         0.0860
     44 H18        -2.4131   -5.0692    2.0930 H         1 <0>         0.0879
     45 H19        -3.1689   -2.1077    1.9848 H         1 <0>         0.0588
     46 H20        -4.3574   -3.4147    1.7944 H         1 <0>         0.0774
     47 H21        -4.3210   -2.6688    4.0555 H         1 <0>         0.0585
     48 H22        -3.6965   -4.3181    3.9419 H         1 <0>         0.0638
     49 H23        -1.7650   -2.0085    3.9310 H         1 <0>         0.0610
     50 H24        -2.4882   -2.5538    5.4638 H         1 <0>         0.0633
     51 H25        -0.6814   -3.9574    5.4172 H         1 <0>         0.0764
     52 H26        -1.8129   -4.9435    4.4647 H         1 <0>         0.0688
     53 H27         0.1531   -4.9273    3.1400 H         1 <0>         0.0669
     54 H28         0.4905   -3.2235    3.4972 H         1 <0>         0.0876
     55 H29         0.2608   -1.0925   -3.0881 H         1 <0>         0.4378
@<TRIPOS>BOND
     1    1    2 1
     2    1   29 1
     3    1   30 1
     4    1   31 1
     5    2    3 2
     6    2    4 am
     7    4    5 1
     8    4   32 1
     9    5    6 1
    10    5   20 1
    11    5   33 1
    12    6    7 1
    13    6   11 1
    14    6    8 1
    15    8    9 1
    16    8   34 1
    17    8   35 1
    18    9   10 1
    19    9   17 1
    20    9   36 1
    21   10   11 1
    22   10   37 1
    23   10   38 1
    24   11   12 1
    25   11   13 1
    26   13   14 2
    27   13   55 1
    28   14   15 1
    29   14   16 1
    30   15   39 1
    31   15   40 1
    32   16   41 1
    33   16   42 1
    34   17   18 2
    35   17   19 1
    36   20   21 2
    37   20   22 am
    38   22   28 1
    39   22   23 1
    40   23   24 1
    41   23   43 1
    42   23   44 1
    43   24   25 1
    44   24   45 1
    45   24   46 1
    46   25   26 1
    47   25   47 1
    48   25   48 1
    49   26   27 1
    50   26   49 1
    51   26   50 1
    52   27   28 1
    53   27   51 1
    54   27   52 1
    55   28   53 1
    56   28   54 1
@<TRIPOS>MOLECULE
CHEMBL56700
   58    59     0     0     0
SMALL
USER_CHARGES

@<TRIPOS>ATOM
      1 C1          0.4694    2.1777   -1.4573 C.3       1 <0>        -0.1712
      2 C2          0.4970    0.8071   -0.7779 C.3       1 <0>         0.0877
      3 N1          0.8895   -0.2134   -1.7529 N.am      1 <0>        -0.6022
      4 C3          2.3077   -0.4996   -1.9831 C.3       1 <0>         0.1598
      5 C4          2.7604   -1.5856   -1.0415 C.ar      1 <0>        -0.1129
      6 C5          3.2615   -1.2560    0.2040 C.ar      1 <0>        -0.1031
      7 C6          3.6767   -2.2522    1.0677 C.ar      1 <0>        -0.1195
      8 C7          3.5903   -3.5781    0.6861 C.ar      1 <0>        -0.1122
      9 C8          3.0884   -3.9077   -0.5590 C.ar      1 <0>        -0.1244
     10 C9          2.6692   -2.9117   -1.4210 C.ar      1 <0>        -0.0938
     11 C10        -0.0541   -0.8891   -2.4381 C.2       1 <0>         0.5057
     12 O1          0.2671   -1.7849   -3.1900 O.2       1 <0>        -0.4951
     13 C11        -1.5084   -0.5315   -2.2700 C.3       1 <0>         0.1332
     14 C12        -2.2008   -1.5981   -1.4191 C.3       1 <0>        -0.1065
     15 H1         -2.0502   -2.5871   -1.8519 H         1 <0>         0.1155
     16 C13        -1.6728   -1.5572    0.0365 C.3       1 <0>        -0.0868
     17 C14        -2.8314   -2.2003    0.8385 C.3       1 <0>        -0.1556
     18 C15        -4.1069   -1.6709    0.1510 C.3       1 <0>        -0.1131
     19 C16        -3.7066   -1.2900   -1.2874 C.3       1 <0>         0.1188
     20 H2         -3.8866   -0.2282   -1.4557 H         1 <0>         0.1028
     21 N2         -4.4683   -2.0878   -2.2515 N.pl3     1 <0>        -0.6372
     22 C17        -5.6330   -1.6733   -2.6646 C.cat     1 <0>         0.7328
     23 N3         -6.1467   -0.4875   -2.1955 N.pl3     1 <0>        -0.8144
     24 N4         -6.3478   -2.4220   -3.5694 N.pl3     1 <0>        -0.8216
     25 C18        -2.7857   -1.7574    2.2782 C.2       1 <0>         0.4967
     26 O2         -3.8170   -1.6724    2.9229 O.co2     1 <0>        -0.6943
     27 O3         -1.7174   -1.4841    2.7983 O.co2     1 <0>        -0.6822
     28 N5         -2.1499   -0.4640   -3.5853 N.am      1 <0>        -0.7300
     29 C19        -2.1719   -1.5516   -4.3810 C.2       1 <0>         0.4948
     30 O4         -1.6606   -2.5862   -4.0081 O.2       1 <0>        -0.4870
     31 C20        -2.8317   -1.4821   -5.7341 C.3       1 <0>        -0.1743
     32 H3          1.4603    2.4099   -1.8474 H         1 <0>         0.0613
     33 H4         -0.2493    2.1626   -2.2767 H         1 <0>         0.0518
     34 H5          0.1773    2.9370   -0.7319 H         1 <0>         0.0726
     35 H6          1.2156    0.8222    0.0415 H         1 <0>         0.0882
     36 H7         -0.4940    0.5749   -0.3878 H         1 <0>         0.0881
     37 H8          2.4495   -0.8288   -3.0125 H         1 <0>         0.0883
     38 H9          2.8937    0.4023   -1.8061 H         1 <0>         0.0853
     39 H10         3.3289   -0.2202    0.5021 H         1 <0>         0.1190
     40 H11         4.0688   -1.9947    2.0405 H         1 <0>         0.1226
     41 H12         3.9154   -4.3564    1.3607 H         1 <0>         0.1207
     42 H13         3.0213   -4.9436   -0.8572 H         1 <0>         0.1192
     43 H14         2.2736   -3.1694   -2.3923 H         1 <0>         0.1247
     44 H15        -1.5898    0.4367   -1.7759 H         1 <0>         0.1118
     45 H16        -0.7616   -2.1474    0.1336 H         1 <0>         0.0788
     46 H17        -1.5046   -0.5293    0.3577 H         1 <0>         0.0789
     47 H18        -2.7847   -3.2872    0.7711 H         1 <0>         0.0739
     48 H19        -4.8702   -2.4487    0.1305 H         1 <0>         0.0715
     49 H20        -4.4803   -0.7946    0.6807 H         1 <0>         0.0931
     50 H21        -5.6424    0.0407   -1.5571 H         1 <0>         0.4376
     51 H22        -7.0134   -0.1791   -2.5029 H         1 <0>         0.4336
     52 H23        -5.9853   -3.2586   -3.9004 H         1 <0>         0.4355
     53 H24        -7.2145   -2.1136   -3.8769 H         1 <0>         0.4345
     54 H25        -2.5588    0.3635   -3.8836 H         1 <0>         0.4017
     55 H26        -2.0988   -1.1760   -6.4805 H         1 <0>         0.0963
     56 H27        -3.2286   -2.4630   -5.9956 H         1 <0>         0.0913
     57 H28        -3.6451   -0.7570   -5.7049 H         1 <0>         0.0722
     58 H29        -4.1058   -2.9244   -2.5825 H         1 <0>         0.4370
@<TRIPOS>BOND
     1    1    2 1
     2    1   32 1
     3    1   33 1
     4    1   34 1
     5    2    3 1
     6    2   35 1
     7    2   36 1
     8    3    4 1
     9    3   11 am
    10    4    5 1
    11    4   37 1
    12    4   38 1
    13    5   10 ar
    14    5    6 ar
    15    6    7 ar
    16    6   39 1
    17    7    8 ar
    18    7   40 1
    19    8    9 ar
    20    8   41 1
    21    9   10 ar
    22    9   42 1
    23   10   43 1
    24   11   12 2
    25   11   13 1
    26   13   14 1
    27   13   28 1
    28   13   44 1
    29   14   15 1
    30   14   19 1
    31   14   16 1
    32   16   17 1
    33   16   45 1
    34   16   46 1
    35   17   18 1
    36   17   25 1
    37   17   47 1
    38   18   19 1
    39   18   48 1
    40   18   49 1
    41   19   20 1
    42   19   21 1
    43   21   22 2
    44   21   58 1
    45   22   23 1
    46   22   24 1
    47   23   50 1
    48   23   51 1
    49   24   52 1
    50   24   53 1
    51   25   26 2
    52   25   27 1
    53   28   29 am
    54   28   54 1
    55   29   30 2
    56   29   31 1
    57   31   55 1
    58   31   56 1
    59   31   57 1
@<TRIPOS>MOLECULE
CHEMBL56700__1
   58    59     0     0     0
SMALL
USER_CHARGES

@<TRIPOS>ATOM
      1 C1          0.1131    2.4101   -1.4810 C.3       1 <0>        -0.1709
      2 C2          0.1935    1.1007   -0.6937 C.3       1 <0>         0.0881
      3 N1          0.7800    0.0578   -1.5390 N.am      1 <0>        -0.6059
      4 C3          2.2353   -0.0941   -1.6113 C.3       1 <0>         0.1608
      5 C4          2.6938   -1.0542   -0.5441 C.ar      1 <0>        -0.1149
      6 C5          3.0319   -0.5829    0.7107 C.ar      1 <0>        -0.1068
      7 C6          3.4524   -1.4636    1.6897 C.ar      1 <0>        -0.1215
      8 C7          3.5344   -2.8157    1.4141 C.ar      1 <0>        -0.1101
      9 C8          3.1955   -3.2871    0.1596 C.ar      1 <0>        -0.1211
     10 C9          2.7709   -2.4070   -0.8181 C.ar      1 <0>        -0.0916
     11 C10        -0.0192   -0.7618   -2.2502 C.2       1 <0>         0.5049
     12 O1          0.4600   -1.6848   -2.8743 O.2       1 <0>        -0.4894
     13 C11        -1.5084   -0.5315   -2.2700 C.3       1 <0>         0.1333
     14 C12        -2.2008   -1.5981   -1.4191 C.3       1 <0>        -0.1001
     15 H1         -2.0459   -2.5838   -1.8578 H         1 <0>         0.1155
     16 C13        -1.6483   -1.5674    0.0167 C.3       1 <0>        -0.1078
     17 C14        -2.8409   -1.2468    0.9411 C.3       1 <0>        -0.1535
     18 C15        -4.0814   -1.6990    0.1313 C.3       1 <0>        -0.1128
     19 C16        -3.7102   -1.2958   -1.3181 C.3       1 <0>         0.1160
     20 H2         -3.8982   -0.2342   -1.4786 H         1 <0>         0.1067
     21 N2         -4.4603   -2.1024   -2.2840 N.pl3     1 <0>        -0.6358
     22 C17        -5.6194   -1.6912   -2.7156 C.cat     1 <0>         0.7340
     23 N3         -6.1380   -0.5005   -2.2645 N.pl3     1 <0>        -0.8161
     24 N4         -6.3234   -2.4481   -3.6220 N.pl3     1 <0>        -0.8209
     25 C18        -2.7369   -2.0271    2.2262 C.2       1 <0>         0.4965
     26 O2         -3.0300   -1.4992    3.2854 O.co2     1 <0>        -0.6898
     27 O3         -2.3595   -3.1863    2.2067 O.co2     1 <0>        -0.6843
     28 N5         -1.9970   -0.6137   -3.6487 N.am      1 <0>        -0.7312
     29 C19        -1.8339   -1.7501   -4.3548 C.2       1 <0>         0.4931
     30 O4         -1.2826   -2.7046   -3.8489 O.2       1 <0>        -0.4821
     31 C20        -2.3365   -1.8346   -5.7730 C.3       1 <0>        -0.1733
     32 H3          1.1146    2.7117   -1.7879 H         1 <0>         0.0624
     33 H4         -0.5094    2.2654   -2.3641 H         1 <0>         0.0525
     34 H5         -0.3233    3.1860   -0.8521 H         1 <0>         0.0718
     35 H6          0.8160    1.2454    0.1893 H         1 <0>         0.0873
     36 H7         -0.8080    0.7991   -0.3868 H         1 <0>         0.0865
     37 H8          2.5119   -0.4817   -2.5918 H         1 <0>         0.0886
     38 H9          2.7100    0.8748   -1.4566 H         1 <0>         0.0850
     39 H10         2.9678    0.4735    0.9260 H         1 <0>         0.1176
     40 H11         3.7172   -1.0952    2.6698 H         1 <0>         0.1219
     41 H12         3.8637   -3.5036    2.1787 H         1 <0>         0.1215
     42 H13         3.2599   -4.3435   -0.0559 H         1 <0>         0.1206
     43 H14         2.5025   -2.7758   -1.7971 H         1 <0>         0.1254
     44 H15        -1.7287    0.4560   -1.8647 H         1 <0>         0.1094
     45 H16        -1.2260   -2.5385    0.2751 H         1 <0>         0.0943
     46 H17        -0.8869   -0.7927    0.1073 H         1 <0>         0.0703
     47 H18        -2.8882   -0.1773    1.1459 H         1 <0>         0.0731
     48 H19        -4.2207   -2.7774    0.2079 H         1 <0>         0.0880
     49 H20        -4.9739   -1.1687    0.4634 H         1 <0>         0.0749
     50 H21        -5.6413    0.0336   -1.6250 H         1 <0>         0.4368
     51 H22        -7.0006   -0.1945   -2.5858 H         1 <0>         0.4338
     52 H23        -5.9575   -3.2882   -3.9403 H         1 <0>         0.4360
     53 H24        -7.1860   -2.1421   -3.9433 H         1 <0>         0.4347
     54 H25        -2.4379    0.1497   -4.0533 H         1 <0>         0.4008
     55 H26        -1.5510   -1.5125   -6.4566 H         1 <0>         0.0956
     56 H27        -2.6152   -2.8639   -5.9989 H         1 <0>         0.0926
     57 H28        -3.2067   -1.1887   -5.8892 H         1 <0>         0.0720
     58 H29        -4.0944   -2.9424   -2.6023 H         1 <0>         0.4376
@<TRIPOS>BOND
     1    1    2 1
     2    1   32 1
     3    1   33 1
     4    1   34 1
     5    2    3 1
     6    2   35 1
     7    2   36 1
     8    3    4 1
     9    3   11 am
    10    4    5 1
    11    4   37 1
    12    4   38 1
    13    5   10 ar
    14    5    6 ar
    15    6    7 ar
    16    6   39 1
    17    7    8 ar
    18    7   40 1
    19    8    9 ar
    20    8   41 1
    21    9   10 ar
    22    9   42 1
    23   10   43 1
    24   11   12 2
    25   11   13 1
    26   13   14 1
    27   13   28 1
    28   13   44 1
    29   14   15 1
    30   14   19 1
    31   14   16 1
    32   16   17 1
    33   16   45 1
    34   16   46 1
    35   17   18 1
    36   17   25 1
    37   17   47 1
    38   18   19 1
    39   18   48 1
    40   18   49 1
    41   19   20 1
    42   19   21 1
    43   21   22 2
    44   21   58 1
    45   22   23 1
    46   22   24 1
    47   23   50 1
    48   23   51 1
    49   24   52 1
    50   24   53 1
    51   25   26 2
    52   25   27 1
    53   28   29 am
    54   28   54 1
    55   29   30 2
    56   29   31 1
    57   31   55 1
    58   31   56 1
    59   31   57 1
@<TRIPOS>MOLECULE
CHEMBL56700__2
   58    59     0     0     0
SMALL
USER_CHARGES

@<TRIPOS>ATOM
      1 C1          0.1502    0.8558    0.5261 C.3       1 <0>        -0.1822
      2 C2         -0.0807   -0.5663    0.0110 C.3       1 <0>         0.1015
      3 N1          0.5586   -0.7214   -1.2979 N.am      1 <0>        -0.6142
      4 C3          1.9942   -1.0007   -1.3835 C.3       1 <0>         0.1580
      5 C4          2.2171   -2.4911   -1.3792 C.ar      1 <0>        -0.1080
      6 C5          2.3877   -3.1609   -0.1820 C.ar      1 <0>        -0.1100
      7 C6          2.5922   -4.5281   -0.1781 C.ar      1 <0>        -0.1263
      8 C7          2.6255   -5.2254   -1.3711 C.ar      1 <0>        -0.1161
      9 C8          2.4540   -4.5557   -2.5682 C.ar      1 <0>        -0.1221
     10 C9          2.2453   -3.1892   -2.5719 C.ar      1 <0>        -0.0918
     11 C10        -0.1739   -0.6071   -2.4235 C.2       1 <0>         0.4942
     12 O1          0.3303   -0.8407   -3.5015 O.2       1 <0>        -0.4585
     13 C11        -1.6195   -0.1890   -2.3425 C.3       1 <0>         0.1414
     14 C12        -1.7104    1.3382   -2.3570 C.3       1 <0>        -0.1092
     15 H1         -0.9865    1.7691   -1.6653 H         1 <0>         0.0952
     16 C13        -1.4811    1.8813   -3.7893 C.3       1 <0>        -0.0864
     17 C14        -2.1837    3.2611   -3.7482 C.3       1 <0>        -0.1660
     18 C15        -3.4407    3.0201   -2.8871 C.3       1 <0>        -0.1100
     19 C16        -3.1389    1.7976   -1.9990 C.3       1 <0>         0.1132
     20 H2         -3.8512    0.9995   -2.2085 H         1 <0>         0.1049
     21 N2         -3.2058    2.1723   -0.5844 N.pl3     1 <0>        -0.6446
     22 C17        -4.3428    2.1191    0.0508 C.cat     1 <0>         0.7350
     23 N3         -5.4792    1.7114   -0.6068 N.pl3     1 <0>        -0.8126
     24 N4         -4.4056    2.4708    1.3784 N.pl3     1 <0>        -0.8209
     25 C18        -2.5718    3.6969   -5.1376 C.2       1 <0>         0.4952
     26 O2         -3.5508    4.4045   -5.3034 O.co2     1 <0>        -0.7006
     27 O3         -1.9068    3.3420   -6.0959 O.co2     1 <0>        -0.6769
     28 N5         -2.3501   -0.7326   -3.4901 N.am      1 <0>        -0.7380
     29 C19        -1.8653   -0.5683   -4.7368 C.2       1 <0>         0.4934
     30 O4         -0.7895   -0.0337   -4.9035 O.2       1 <0>        -0.4475
     31 C20        -2.6599   -1.0488   -5.9237 C.3       1 <0>        -0.1696
     32 H3          1.2143    1.0088    0.7058 H         1 <0>         0.0686
     33 H4         -0.1996    1.5726   -0.2168 H         1 <0>         0.0577
     34 H5         -0.3997    0.9991    1.4563 H         1 <0>         0.0651
     35 H6          0.3495   -1.2811    0.7125 H         1 <0>         0.0802
     36 H7         -1.1511   -0.7492   -0.0835 H         1 <0>         0.0735
     37 H8          2.3926   -0.5764   -2.3051 H         1 <0>         0.0936
     38 H9          2.5026   -0.5548   -0.5287 H         1 <0>         0.0837
     39 H10         2.3616   -2.6161    0.7501 H         1 <0>         0.1171
     40 H11         2.7262   -5.0513    0.7572 H         1 <0>         0.1205
     41 H12         2.7860   -6.2934   -1.3681 H         1 <0>         0.1208
     42 H13         2.4804   -5.1005   -3.5004 H         1 <0>         0.1219
     43 H14         2.1075   -2.6665   -3.5069 H         1 <0>         0.1298
     44 H15        -2.0568   -0.5702   -1.4197 H         1 <0>         0.0980
     45 H16        -0.4165    1.9958   -3.9933 H         1 <0>         0.0800
     46 H17        -1.9494    1.2313   -4.5285 H         1 <0>         0.1051
     47 H18        -1.5378    4.0043   -3.2808 H         1 <0>         0.0665
     48 H19        -3.6392    3.8920   -2.2639 H         1 <0>         0.0689
     49 H20        -4.2985    2.8154   -3.5277 H         1 <0>         0.0907
     50 H21        -5.4349    1.4633   -1.5435 H         1 <0>         0.4386
     51 H22        -6.3253    1.6719   -0.1341 H         1 <0>         0.4346
     52 H23        -3.6038    2.7585    1.8424 H         1 <0>         0.4352
     53 H24        -5.2517    2.4313    1.8511 H         1 <0>         0.4354
     54 H25        -3.1828   -1.2108   -3.3526 H         1 <0>         0.3997
     55 H26        -3.3155   -0.2497   -6.2697 H         1 <0>         0.0965
     56 H27        -1.9789   -1.3330   -6.7259 H         1 <0>         0.0938
     57 H28        -3.2601   -1.9113   -5.6340 H         1 <0>         0.0711
     58 H29        -2.4040    2.4600   -0.1204 H         1 <0>         0.4332
@<TRIPOS>BOND
     1    1    2 1
     2    1   32 1
     3    1   33 1
     4    1   34 1
     5    2    3 1
     6    2   35 1
     7    2   36 1
     8    3    4 1
     9    3   11 am
    10    4    5 1
    11    4   37 1
    12    4   38 1
    13    5   10 ar
    14    5    6 ar
    15    6    7 ar
    16    6   39 1
    17    7    8 ar
    18    7   40 1
    19    8    9 ar
    20    8   41 1
    21    9   10 ar
    22    9   42 1
    23   10   43 1
    24   11   12 2
    25   11   13 1
    26   13   14 1
    27   13   28 1
    28   13   44 1
    29   14   15 1
    30   14   19 1
    31   14   16 1
    32   16   17 1
    33   16   45 1
    34   16   46 1
    35   17   18 1
    36   17   25 1
    37   17   47 1
    38   18   19 1
    39   18   48 1
    40   18   49 1
    41   19   20 1
    42   19   21 1
    43   21   22 2
    44   21   58 1
    45   22   23 1
    46   22   24 1
    47   23   50 1
    48   23   51 1
    49   24   52 1
    50   24   53 1
    51   25   26 2
    52   25   27 1
    53   28   29 am
    54   28   54 1
    55   29   30 2
    56   29   31 1
    57   31   55 1
    58   31   56 1
    59   31   57 1
@<TRIPOS>MOLECULE
CHEMBL56700__3
   58    59     0     0     0
SMALL
USER_CHARGES

@<TRIPOS>ATOM
      1 C1          0.2246    1.2282    0.6858 C.3       1 <0>        -0.1922
      2 C2         -0.1431   -0.1748    0.1984 C.3       1 <0>         0.0985
      3 N1          0.5887   -0.4705   -1.0357 N.am      1 <0>        -0.6096
      4 C3          2.0486   -0.5899   -1.0109 C.3       1 <0>         0.1577
      5 C4          2.4308   -2.0221   -0.7393 C.ar      1 <0>        -0.1073
      6 C5          2.5989   -2.4578    0.5618 C.ar      1 <0>        -0.1097
      7 C6          2.9495   -3.7715    0.8110 C.ar      1 <0>        -0.1261
      8 C7          3.1317   -4.6497   -0.2410 C.ar      1 <0>        -0.1161
      9 C8          2.9628   -4.2142   -1.5420 C.ar      1 <0>        -0.1225
     10 C9          2.6079   -2.9016   -1.7910 C.ar      1 <0>        -0.0924
     11 C10        -0.0811   -0.6325   -2.1940 C.2       1 <0>         0.5097
     12 O1          0.5103   -0.9858   -3.1922 O.2       1 <0>        -0.4780
     13 C11        -1.5649   -0.3748   -2.2488 C.3       1 <0>         0.1385
     14 C12        -1.8457    1.0754   -1.8499 C.3       1 <0>        -0.1138
     15 H1         -1.1258    1.4020   -1.0996 H         1 <0>         0.1044
     16 C13        -1.7678    1.9868   -3.0872 C.3       1 <0>        -0.1320
     17 C14        -3.1581    2.6368   -3.2440 C.3       1 <0>        -0.1508
     18 C15        -3.7679    2.5772   -1.8214 C.3       1 <0>        -0.1112
     19 C16        -3.2801    1.2030   -1.2968 C.3       1 <0>         0.1085
     20 H2         -3.9105    0.4019   -1.6828 H         1 <0>         0.1091
     21 N2         -3.2681    1.1871    0.1680 N.pl3     1 <0>        -0.6468
     22 C17        -4.3255    0.7995    0.8243 C.cat     1 <0>         0.7355
     23 N3         -5.4521    0.4057    0.1418 N.pl3     1 <0>        -0.8130
     24 N4         -4.3142    0.7846    2.1990 N.pl3     1 <0>        -0.8194
     25 C18        -3.0234    4.0667   -3.7005 C.2       1 <0>         0.4960
     26 O2         -3.7967    4.5177   -4.5282 O.co2     1 <0>        -0.6918
     27 O3         -2.1411    4.7724   -3.2422 O.co2     1 <0>        -0.6874
     28 N5         -2.0514   -0.6097   -3.6105 N.am      1 <0>        -0.7280
     29 C19        -1.3079   -0.2264   -4.6673 C.2       1 <0>         0.5183
     30 O4         -0.2806    0.3942   -4.4927 O.2       1 <0>        -0.4849
     31 C20        -1.7530   -0.5688   -6.0657 C.3       1 <0>        -0.1721
     32 H3          1.2691    1.2426    0.9967 H         1 <0>         0.0757
     33 H4          0.0762    1.9441   -0.1227 H         1 <0>         0.0763
     34 H5         -0.4097    1.4973    1.5304 H         1 <0>         0.0638
     35 H6          0.1221   -0.9058    0.9622 H         1 <0>         0.0769
     36 H7         -1.2149   -0.2232    0.0058 H         1 <0>         0.0684
     37 H8          2.4548   -0.2819   -1.9744 H         1 <0>         0.0958
     38 H9          2.4521    0.0490   -0.2255 H         1 <0>         0.0866
     39 H10         2.4565   -1.7717    1.3836 H         1 <0>         0.1177
     40 H11         3.0815   -4.1117    1.8274 H         1 <0>         0.1207
     41 H12         3.4063   -5.6759   -0.0463 H         1 <0>         0.1209
     42 H13         3.1054   -4.9003   -2.3639 H         1 <0>         0.1218
     43 H14         2.4723   -2.5623   -2.8073 H         1 <0>         0.1293
     44 H15        -2.0761   -1.0467   -1.5594 H         1 <0>         0.1007
     45 H16        -1.0107    2.7564   -2.9370 H         1 <0>         0.0841
     46 H17        -1.5300    1.3961   -3.9718 H         1 <0>         0.1108
     47 H18        -3.7686    2.0675   -3.9449 H         1 <0>         0.0683
     48 H19        -3.3814    3.3859   -1.2012 H         1 <0>         0.0865
     49 H20        -4.8565    2.6095   -1.8661 H         1 <0>         0.0728
     50 H21        -5.4601    0.4162   -0.8281 H         1 <0>         0.4380
     51 H22        -6.2390    0.1172    0.6302 H         1 <0>         0.4352
     52 H23        -3.5193    1.0625    2.6805 H         1 <0>         0.4358
     53 H24        -5.1011    0.4962    2.6874 H         1 <0>         0.4362
     54 H25        -2.9086   -1.0411   -3.7516 H         1 <0>         0.4040
     55 H26        -2.3849    0.2309   -6.4520 H         1 <0>         0.0972
     56 H27        -0.8793   -0.6835   -6.7073 H         1 <0>         0.0954
     57 H28        -2.3167   -1.5016   -6.0494 H         1 <0>         0.0769
     58 H29        -2.4733    1.4650    0.6496 H         1 <0>         0.4332
@<TRIPOS>BOND
     1    1    2 1
     2    1   32 1
     3    1   33 1
     4    1   34 1
     5    2    3 1
     6    2   35 1
     7    2   36 1
     8    3    4 1
     9    3   11 am
    10    4    5 1
    11    4   37 1
    12    4   38 1
    13    5   10 ar
    14    5    6 ar
    15    6    7 ar
    16    6   39 1
    17    7    8 ar
    18    7   40 1
    19    8    9 ar
    20    8   41 1
    21    9   10 ar
    22    9   42 1
    23   10   43 1
    24   11   12 2
    25   11   13 1
    26   13   14 1
    27   13   28 1
    28   13   44 1
    29   14   15 1
    30   14   19 1
    31   14   16 1
    32   16   17 1
    33   16   45 1
    34   16   46 1
    35   17   18 1
    36   17   25 1
    37   17   47 1
    38   18   19 1
    39   18   48 1
    40   18   49 1
    41   19   20 1
    42   19   21 1
    43   21   22 2
    44   21   58 1
    45   22   23 1
    46   22   24 1
    47   23   50 1
    48   23   51 1
    49   24   52 1
    50   24   53 1
    51   25   26 2
    52   25   27 1
    53   28   29 am
    54   28   54 1
    55   29   30 2
    56   29   31 1
    57   31   55 1
    58   31   56 1
    59   31   57 1
@<TRIPOS>MOLECULE
CHEMBL25495
   46    47     0     0     0
SMALL
USER_CHARGES

@<TRIPOS>ATOM
      1 C1         -1.7520    1.6481    1.0196 C.3       1 <0>        -0.1496
      2 C2         -1.9301    0.1323    1.1270 C.3       1 <0>        -0.1071
      3 C3         -1.2705   -0.3709    2.4142 C.3       1 <0>        -0.1358
      4 C4         -1.3828   -1.8957    2.4760 C.3       1 <0>        -0.0147
      5 N1         -0.7073   -2.4871    1.3147 N.4       1 <0>        -0.3722
      6 C5         -1.3794   -2.0659    0.0797 C.3       1 <0>        -0.0116
      7 C6         -1.2670   -0.5476   -0.0743 C.3       1 <0>        -0.1370
      8 C7         -0.7502   -3.9518    1.4187 C.3       1 <0>         0.0723
      9 H1         -0.3421   -4.3908    0.5082 H         1 <0>         0.1367
     10 C8         -2.1733   -4.3970    1.5911 C.2       1 <0>        -0.2423
     11 C9         -2.5503   -5.3326    2.4397 C.2       1 <0>        -0.0660
     12 C10        -1.6057   -6.0644    3.3481 C.3       1 <0>        -0.0846
     13 C11        -0.1659   -5.8921    2.8599 C.3       1 <0>         0.0920
     14 H2         -0.0258   -6.4444    1.9307 H         1 <0>         0.0442
     15 C12         0.0879   -4.4000    2.6177 C.3       1 <0>         0.1311
     16 H3         -0.2016   -3.8299    3.5005 H         1 <0>         0.1200
     17 N2          1.5088   -4.1853    2.3328 N.am      1 <0>        -0.7529
     18 C13         2.3814   -4.0170    3.3461 C.2       1 <0>         0.5037
     19 O1          1.9903   -4.0432    4.4938 O.2       1 <0>        -0.4953
     20 C14         3.8430   -3.7961    3.0529 C.3       1 <0>        -0.1771
     21 N3          0.7643   -6.3965    3.8788 N.3       1 <0>        -0.8273
     22 C15        -3.9748   -5.6781    2.5000 C.2       1 <0>         0.5028
     23 O2         -4.7752   -5.1027    1.7749 O.co2     1 <0>        -0.6767
     24 O3         -4.3627   -6.5417    3.2755 O.co2     1 <0>        -0.6635
     25 H4         -2.2157    2.0042    0.0997 H         1 <0>         0.0649
     26 H5         -2.2244    2.1310    1.8751 H         1 <0>         0.0655
     27 H6         -0.6890    1.8891    1.0076 H         1 <0>         0.0584
     28 H7         -2.9928   -0.1096    1.1420 H         1 <0>         0.0925
     29 H8         -0.2193   -0.0828    2.4212 H         1 <0>         0.0817
     30 H9         -1.7742    0.0664    3.2763 H         1 <0>         0.1099
     31 H10        -0.9143   -2.2573    3.3913 H         1 <0>         0.1266
     32 H11        -2.4343   -2.1827    2.4692 H         1 <0>         0.1403
     33 H12        -0.9084   -2.5531   -0.7741 H         1 <0>         0.1270
     34 H13        -2.4310   -2.3492    0.1240 H         1 <0>         0.1379
     35 H14        -1.7681   -0.2366   -0.9910 H         1 <0>         0.1099
     36 H15        -0.2157   -0.2631   -0.1190 H         1 <0>         0.0825
     37 H16        -2.9317   -3.9239    0.9850 H         1 <0>         0.1444
     38 H17        -1.6947   -5.6659    4.3588 H         1 <0>         0.0990
     39 H18        -1.8602   -7.1243    3.3560 H         1 <0>         0.0966
     40 H19         1.8216   -4.1643    1.4148 H         1 <0>         0.3988
     41 H20         3.9608   -2.8947    2.4515 H         1 <0>         0.0877
     42 H21         4.3882   -3.6816    3.9898 H         1 <0>         0.0984
     43 H22         4.2372   -4.6523    2.5055 H         1 <0>         0.0905
     44 H23         0.6019   -7.3750    4.0641 H         1 <0>         0.3509
     45 H24         1.7221   -6.2343    3.6060 H         1 <0>         0.3363
     46 H25         0.2540   -2.1814    1.2944 H         1 <0>         0.4111
@<TRIPOS>BOND
     1    1    2 1
     2    1   25 1
     3    1   26 1
     4    1   27 1
     5    2    7 1
     6    2    3 1
     7    2   28 1
     8    3    4 1
     9    3   29 1
    10    3   30 1
    11    4    5 1
    12    4   31 1
    13    4   32 1
    14    5    6 1
    15    5    8 1
    16    5   46 1
    17    6    7 1
    18    6   33 1
    19    6   34 1
    20    7   35 1
    21    7   36 1
    22    8    9 1
    23    8   15 1
    24    8   10 1
    25   10   11 2
    26   10   37 1
    27   11   12 1
    28   11   22 1
    29   12   13 1
    30   12   38 1
    31   12   39 1
    32   13   14 1
    33   13   15 1
    34   13   21 1
    35   15   16 1
    36   15   17 1
    37   17   18 am
    38   17   40 1
    39   18   19 2
    40   18   20 1
    41   20   41 1
    42   20   42 1
    43   20   43 1
    44   21   44 1
    45   21   45 1
    46   22   23 2
    47   22   24 1
@<TRIPOS>MOLECULE
CHEMBL25495__1
   46    47     0     0     0
SMALL
USER_CHARGES

@<TRIPOS>ATOM
      1 C1         -1.4299    1.6778    0.7717 C.3       1 <0>        -0.1460
      2 C2         -1.7010    0.1794    0.9207 C.3       1 <0>        -0.0975
      3 C3         -1.1545   -0.3082    2.2653 C.3       1 <0>        -0.1077
      4 C4         -1.3741   -1.8182    2.3823 C.3       1 <0>         0.0478
      5 N1         -0.6878   -2.5009    1.2781 N.3       1 <0>        -0.5202
      6 C5         -1.2284   -2.0837   -0.0220 C.3       1 <0>         0.0506
      7 C6         -1.0045   -0.5817   -0.2107 C.3       1 <0>        -0.1080
      8 C7         -0.7605   -3.9598    1.4348 C.3       1 <0>         0.1160
      9 H1         -0.3924   -4.4394    0.5278 H         1 <0>         0.1011
     10 C8         -2.1869   -4.3647    1.6680 C.2       1 <0>        -0.1761
     11 C9         -2.5571   -5.2614    2.5606 C.2       1 <0>        -0.1505
     12 C10        -1.6002   -5.9837    3.4636 C.3       1 <0>        -0.0832
     13 C11        -0.1736   -5.8627    2.9241 C.3       1 <0>         0.0140
     14 H2         -0.0764   -6.4498    2.0109 H         1 <0>         0.1449
     15 C12         0.1060   -4.3862    2.6216 C.3       1 <0>         0.1325
     16 H3         -0.1416   -3.7793    3.4925 H         1 <0>         0.1206
     17 N2          1.5213   -4.2153    2.2841 N.am      1 <0>        -0.7205
     18 C13         2.4301   -4.0330    3.2626 C.2       1 <0>         0.5063
     19 O1          2.0762   -4.0104    4.4224 O.2       1 <0>        -0.5568
     20 C14         3.8860   -3.8572    2.9155 C.3       1 <0>        -0.1791
     21 N3          0.7778   -6.3537    3.9300 N.4       1 <0>        -0.6279
     22 C15        -3.9863   -5.5706    2.6783 C.2       1 <0>         0.5093
     23 O2         -4.7968   -5.0016    1.9593 O.co2     1 <0>        -0.6736
     24 O3         -4.3682   -6.3975    3.4956 O.co2     1 <0>        -0.6850
     25 H4         -1.8142    2.0229   -0.1882 H         1 <0>         0.0551
     26 H5         -1.9261    2.2188    1.5774 H         1 <0>         0.0547
     27 H6         -0.3562    1.8593    0.8195 H         1 <0>         0.0534
     28 H7         -2.7747   -0.0027    0.8752 H         1 <0>         0.0706
     29 H8         -0.0883   -0.0898    2.3256 H         1 <0>         0.0668
     30 H9         -1.6769    0.1994    3.0762 H         1 <0>         0.0675
     31 H10        -0.9732   -2.1710    3.3325 H         1 <0>         0.0682
     32 H11        -2.4414   -2.0347    2.3359 H         1 <0>         0.0522
     33 H12        -0.7217   -2.6293   -0.8180 H         1 <0>         0.0756
     34 H13        -2.2964   -2.2990   -0.0572 H         1 <0>         0.0473
     35 H14        -1.4198   -0.2694   -1.1689 H         1 <0>         0.0690
     36 H15         0.0640   -0.3675   -0.1894 H         1 <0>         0.0687
     37 H16        -2.9538   -3.8949    1.0701 H         1 <0>         0.1355
     38 H17        -1.6471   -5.5487    4.4619 H         1 <0>         0.0939
     39 H18        -1.8783   -7.0363    3.5169 H         1 <0>         0.1089
     40 H19         1.8044   -4.2334    1.3565 H         1 <0>         0.4158
     41 H20         4.0995   -2.7983    2.7701 H         1 <0>         0.1055
     42 H21         4.5023   -4.2440    3.7271 H         1 <0>         0.0997
     43 H22         4.1092   -4.4022    1.9983 H         1 <0>         0.0866
     44 H23         0.5789   -7.3210    4.1371 H         1 <0>         0.4339
     45 H24         1.7176   -6.2728    3.5718 H         1 <0>         0.4216
     46 H25         0.6903   -5.8046    4.7719 H         1 <0>         0.4385
@<TRIPOS>BOND
     1    1    2 1
     2    1   25 1
     3    1   26 1
     4    1   27 1
     5    2    7 1
     6    2    3 1
     7    2   28 1
     8    3    4 1
     9    3   29 1
    10    3   30 1
    11    4    5 1
    12    4   31 1
    13    4   32 1
    14    5    6 1
    15    5    8 1
    16    6    7 1
    17    6   33 1
    18    6   34 1
    19    7   35 1
    20    7   36 1
    21    8    9 1
    22    8   15 1
    23    8   10 1
    24   10   11 2
    25   10   37 1
    26   11   12 1
    27   11   22 1
    28   12   13 1
    29   12   38 1
    30   12   39 1
    31   13   14 1
    32   13   15 1
    33   13   21 1
    34   15   16 1
    35   15   17 1
    36   17   18 am
    37   17   40 1
    38   18   19 2
    39   18   20 1
    40   20   41 1
    41   20   42 1
    42   20   43 1
    43   21   44 1
    44   21   45 1
    45   21   46 1
    46   22   23 2
    47   22   24 1
@<TRIPOS>MOLECULE
CHEMBL25333
   49    50     0     0     0
SMALL
USER_CHARGES

@<TRIPOS>ATOM
      1 C1          2.1838   -0.4812   -2.5487 C.3       1 <0>        -0.1602
      2 C2          1.6230   -0.0790   -1.1832 C.3       1 <0>        -0.1169
      3 C3          2.5490   -0.5944   -0.0797 C.3       1 <0>        -0.1041
      4 C4          2.5387   -2.1258   -0.0763 C.3       1 <0>        -0.1370
      5 C5          3.4037   -2.6337    1.0793 C.3       1 <0>        -0.0146
      6 N1          2.8673   -2.1365    2.3519 N.4       1 <0>        -0.3722
      7 C6          2.9405   -0.6709    2.3847 C.3       1 <0>        -0.0112
      8 C7          2.0578   -0.0875    1.2793 C.3       1 <0>        -0.1369
      9 C8          3.6538   -2.6896    3.4626 C.3       1 <0>         0.0723
     10 H1          3.3227   -2.2401    4.3988 H         1 <0>         0.1366
     11 C9          5.1062   -2.3781    3.2473 C.2       1 <0>        -0.2422
     12 C10         6.0794   -3.2425    3.4555 C.2       1 <0>        -0.0661
     13 C11         5.8577   -4.6509    3.9248 C.3       1 <0>        -0.0845
     14 C12         4.4549   -4.7934    4.5188 C.3       1 <0>         0.0922
     15 H2          4.4003   -4.2518    5.4631 H         1 <0>         0.0442
     16 C13         3.4466   -4.2042    3.5260 C.3       1 <0>         0.1305
     17 H3          3.6069   -4.6373    2.5387 H         1 <0>         0.1200
     18 N2          2.0848   -4.4960    3.9804 N.am      1 <0>        -0.7516
     19 C14         1.5005   -5.6651    3.6511 C.2       1 <0>         0.5040
     20 O1          2.1021   -6.4755    2.9786 O.2       1 <0>        -0.4967
     21 C15         0.0996   -5.9653    4.1186 C.3       1 <0>        -0.1740
     22 N3          4.1575   -6.2138    4.7468 N.3       1 <0>        -0.8273
     23 C16         7.4581   -2.8029    3.2143 C.2       1 <0>         0.5029
     24 O2          7.6783   -1.6619    2.8308 O.co2     1 <0>        -0.6767
     25 O3          8.3880   -3.5773    3.3967 O.co2     1 <0>        -0.6636
     26 H4          2.2506   -1.5675   -2.6084 H         1 <0>         0.0570
     27 H5          1.5242   -0.1140   -3.3349 H         1 <0>         0.0595
     28 H6          3.1762   -0.0486   -2.6757 H         1 <0>         0.0596
     29 H7          1.5562    1.0073   -1.1235 H         1 <0>         0.0709
     30 H8          0.6306   -0.5115   -1.0563 H         1 <0>         0.0651
     31 H9          3.5629   -0.2359   -0.2576 H         1 <0>         0.0930
     32 H10         1.5166   -2.4826    0.0499 H         1 <0>         0.0819
     33 H11         2.9397   -2.4945   -1.0204 H         1 <0>         0.1114
     34 H12         3.3987   -3.7237    1.0845 H         1 <0>         0.1264
     35 H13         4.4256   -2.2765    0.9519 H         1 <0>         0.1401
     36 H14         2.5936   -0.3118    3.3536 H         1 <0>         0.1269
     37 H15         3.9723   -0.3555    2.2295 H         1 <0>         0.1379
     38 H16         2.1149    1.0008    1.3042 H         1 <0>         0.1099
     39 H17         1.0256   -0.4020    1.4337 H         1 <0>         0.0827
     40 H18         5.3690   -1.3890    2.9023 H         1 <0>         0.1443
     41 H19         5.9643   -5.3336    3.0819 H         1 <0>         0.0989
     42 H20         6.5988   -4.8995    4.6845 H         1 <0>         0.0965
     43 H21         1.6036   -3.8479    4.5182 H         1 <0>         0.3986
     44 H22        -0.2752   -5.1266    4.7052 H         1 <0>         0.0751
     45 H23        -0.5461   -6.1217    3.2544 H         1 <0>         0.0983
     46 H24         0.1069   -6.8648    4.7342 H         1 <0>         0.1006
     47 H25         4.8213   -6.6241    5.3863 H         1 <0>         0.3509
     48 H26         3.2125   -6.3367    5.0784 H         1 <0>         0.3363
     49 H27         1.9054   -2.4264    2.4465 H         1 <0>         0.4112
@<TRIPOS>BOND
     1    1    2 1
     2    1   26 1
     3    1   27 1
     4    1   28 1
     5    2    3 1
     6    2   29 1
     7    2   30 1
     8    3    8 1
     9    3    4 1
    10    3   31 1
    11    4    5 1
    12    4   32 1
    13    4   33 1
    14    5    6 1
    15    5   34 1
    16    5   35 1
    17    6    7 1
    18    6    9 1
    19    6   49 1
    20    7    8 1
    21    7   36 1
    22    7   37 1
    23    8   38 1
    24    8   39 1
    25    9   10 1
    26    9   16 1
    27    9   11 1
    28   11   12 2
    29   11   40 1
    30   12   13 1
    31   12   23 1
    32   13   14 1
    33   13   41 1
    34   13   42 1
    35   14   15 1
    36   14   16 1
    37   14   22 1
    38   16   17 1
    39   16   18 1
    40   18   19 am
    41   18   43 1
    42   19   20 2
    43   19   21 1
    44   21   44 1
    45   21   45 1
    46   21   46 1
    47   22   47 1
    48   22   48 1
    49   23   24 2
    50   23   25 1
@<TRIPOS>MOLECULE
CHEMBL25333__1
   49    50     0     0     0
SMALL
USER_CHARGES

@<TRIPOS>ATOM
      1 C1         -2.9564   -0.3701   -0.3686 C.3       1 <0>        -0.1558
      2 C2         -1.4842   -0.0363   -0.6178 C.3       1 <0>        -0.1167
      3 C3         -1.0755   -0.5364   -2.0048 C.3       1 <0>        -0.0925
      4 C4         -1.1478   -2.0655   -2.0392 C.3       1 <0>        -0.1078
      5 C5         -0.6798   -2.5627   -3.4088 C.3       1 <0>         0.0478
      6 N1          0.6977   -2.1144   -3.6492 N.3       1 <0>        -0.5199
      7 C6          0.7835   -0.6486   -3.6677 C.3       1 <0>         0.0510
      8 C7          0.3592   -0.0942   -2.3059 C.3       1 <0>        -0.1082
      9 C8          1.2287   -2.6886   -4.8927 C.3       1 <0>         0.1160
     10 H1          2.1811   -2.2153   -5.1315 H         1 <0>         0.1010
     11 C9          0.2567   -2.4419   -6.0096 C.2       1 <0>        -0.1760
     12 C10        -0.0631   -3.3449   -6.9151 C.2       1 <0>        -0.1506
     13 C11         0.4968   -4.7373   -6.9384 C.3       1 <0>        -0.0832
     14 C12         1.7559   -4.8132   -6.0724 C.3       1 <0>         0.0138
     15 H2          2.5636   -4.2596   -6.5511 H         1 <0>         0.1450
     16 C13         1.4422   -4.1922   -4.7065 C.3       1 <0>         0.1329
     17 H3          0.5379   -4.6425   -4.2970 H         1 <0>         0.1206
     18 N2          2.5664   -4.4206   -3.7954 N.am      1 <0>        -0.7211
     19 C14         2.6405   -5.5670   -3.0907 C.2       1 <0>         0.5063
     20 O1          1.7765   -6.4097   -3.2109 O.2       1 <0>        -0.5561
     21 C15         3.7969   -5.8020   -2.1534 C.3       1 <0>        -0.1810
     22 N3          2.1535   -6.2171   -5.9016 N.4       1 <0>        -0.6279
     23 C16        -1.0214   -2.9673   -7.9598 C.2       1 <0>         0.5094
     24 O2         -1.4996   -1.8409   -7.9733 O.co2     1 <0>        -0.6736
     25 O3         -1.3426   -3.7788   -8.8177 O.co2     1 <0>        -0.6851
     26 H4         -3.5722    0.1152   -1.1258 H         1 <0>         0.0546
     27 H5         -3.0982   -1.4495   -0.4220 H         1 <0>         0.0552
     28 H6         -3.2476   -0.0139    0.6195 H         1 <0>         0.0528
     29 H7         -1.3423    1.0431   -0.5643 H         1 <0>         0.0614
     30 H8         -0.8684   -0.5216    0.1395 H         1 <0>         0.0601
     31 H9         -1.7493   -0.1219   -2.7546 H         1 <0>         0.0709
     32 H10        -0.5035   -2.4779   -1.2627 H         1 <0>         0.0664
     33 H11        -2.1757   -2.3851   -1.8677 H         1 <0>         0.0695
     34 H12        -0.7166   -3.6519   -3.4317 H         1 <0>         0.0678
     35 H13        -1.3329   -2.1611   -4.1836 H         1 <0>         0.0519
     36 H14         1.8096   -0.3475   -3.8788 H         1 <0>         0.0754
     37 H15         0.1236   -0.2559   -4.4413 H         1 <0>         0.0471
     38 H16         0.4081    0.9945   -2.3249 H         1 <0>         0.0689
     39 H17         1.0272   -0.4756   -1.5336 H         1 <0>         0.0686
     40 H18        -0.2071   -1.4687   -6.0751 H         1 <0>         0.1354
     41 H19        -0.2489   -5.4331   -6.5538 H         1 <0>         0.0938
     42 H20         0.7467   -5.0092   -7.9640 H         1 <0>         0.1088
     43 H21         3.2574   -3.7467   -3.6992 H         1 <0>         0.4159
     44 H22         3.8108   -5.0230   -1.3911 H         1 <0>         0.0996
     45 H23         3.6857   -6.7755   -1.6760 H         1 <0>         0.1000
     46 H24         4.7307   -5.7773   -2.7151 H         1 <0>         0.0937
     47 H25         2.3429   -6.6252   -6.8047 H         1 <0>         0.4339
     48 H26         2.9838   -6.2644   -5.3303 H         1 <0>         0.4215
     49 H27         1.4068   -6.7259   -5.4526 H         1 <0>         0.4385
@<TRIPOS>BOND
     1    1    2 1
     2    1   26 1
     3    1   27 1
     4    1   28 1
     5    2    3 1
     6    2   29 1
     7    2   30 1
     8    3    8 1
     9    3    4 1
    10    3   31 1
    11    4    5 1
    12    4   32 1
    13    4   33 1
    14    5    6 1
    15    5   34 1
    16    5   35 1
    17    6    7 1
    18    6    9 1
    19    7    8 1
    20    7   36 1
    21    7   37 1
    22    8   38 1
    23    8   39 1
    24    9   10 1
    25    9   16 1
    26    9   11 1
    27   11   12 2
    28   11   40 1
    29   12   13 1
    30   12   23 1
    31   13   14 1
    32   13   41 1
    33   13   42 1
    34   14   15 1
    35   14   16 1
    36   14   22 1
    37   16   17 1
    38   16   18 1
    39   18   19 am
    40   18   43 1
    41   19   20 2
    42   19   21 1
    43   21   44 1
    44   21   45 1
    45   21   46 1
    46   22   47 1
    47   22   48 1
    48   22   49 1
    49   23   24 2
    50   23   25 1
@<TRIPOS>MOLECULE
CHEMBL136111
   50    50     0     0     0
SMALL
USER_CHARGES

@<TRIPOS>ATOM
      1 C1          1.1669   -0.7299    4.0075 C.3       1 <0>        -0.1509
      2 C2          0.2711   -0.3318    2.8328 C.3       1 <0>        -0.1281
      3 C3          0.8371   -0.9184    1.5380 C.3       1 <0>        -0.0946
      4 C4         -0.1549   -0.6865    0.3966 C.3       1 <0>        -0.1385
      5 C5          0.4010   -1.2930   -0.8934 C.3       1 <0>        -0.1561
      6 C6          2.1652   -0.2350    1.2063 C.3       1 <0>         0.1487
      7 H1          2.4878   -0.5328    0.2086 H         1 <0>         0.0987
      8 C7          1.9826    1.2834    1.2513 C.3       1 <0>        -0.1073
      9 H2          1.4408    1.5675    2.1534 H         1 <0>         0.0984
     10 C8          1.2167    1.7593    0.0044 C.3       1 <0>        -0.1039
     11 C9          2.1529    2.7307   -0.7437 C.3       1 <0>        -0.1575
     12 H3          2.7036    2.2051   -1.5238 H         1 <0>         0.0759
     13 C10         3.1209    3.2442    0.3511 C.3       1 <0>        -0.1042
     14 C11         3.3576    1.9822    1.2186 C.3       1 <0>         0.1010
     15 H4          4.1032    1.3356    0.7558 H         1 <0>         0.1109
     16 N1          3.7733    2.3594    2.5718 N.pl3     1 <0>        -0.6468
     17 C12         5.0390    2.5012    2.8490 C.cat     1 <0>         0.7339
     18 N2          5.9839    2.2967    1.8715 N.pl3     1 <0>        -0.8118
     19 N3          5.4291    2.8553    4.1189 N.pl3     1 <0>        -0.8199
     20 C13         1.3659    3.8726   -1.3335 C.2       1 <0>         0.4965
     21 O1          1.8866    4.9669   -1.4673 O.co2     1 <0>        -0.6945
     22 O2          0.2085    3.7020   -1.6769 O.co2     1 <0>        -0.6832
     23 N4          3.1781   -0.6343    2.1865 N.am      1 <0>        -0.7310
     24 C14         3.6649   -1.8911    2.1787 C.2       1 <0>         0.5065
     25 O3          3.3337   -2.6642    1.3050 O.2       1 <0>        -0.5260
     26 C15         4.6208   -2.3356    3.2557 C.3       1 <0>        -0.1731
     27 H5          2.1378   -0.2451    3.9046 H         1 <0>         0.0476
     28 H6          0.7015   -0.4163    4.9419 H         1 <0>         0.0509
     29 H7          1.2997   -1.8117    4.0128 H         1 <0>         0.0526
     30 H8         -0.7354   -0.7168    2.9966 H         1 <0>         0.0679
     31 H9          0.2361    0.7549    2.7545 H         1 <0>         0.0686
     32 H10         1.0010   -1.9885    1.6652 H         1 <0>         0.0824
     33 H11        -1.1061   -1.1597    0.6401 H         1 <0>         0.0648
     34 H12        -0.3064    0.3841    0.2588 H         1 <0>         0.0884
     35 H13        -0.2516   -1.0342   -1.7272 H         1 <0>         0.0599
     36 H14         1.4005   -0.8995   -1.0786 H         1 <0>         0.0562
     37 H15         0.4502   -2.3773   -0.7934 H         1 <0>         0.0539
     38 H16         0.9751    0.9086   -0.6327 H         1 <0>         0.0919
     39 H17         0.3036    2.2751    0.3015 H         1 <0>         0.0868
     40 H18         4.0553    3.5902   -0.0909 H         1 <0>         0.0752
     41 H19         2.6546    4.0346    0.9392 H         1 <0>         0.0839
     42 H20         5.7086    2.0469    0.9756 H         1 <0>         0.4388
     43 H21         6.9258    2.4022    2.0778 H         1 <0>         0.4348
     44 H22         4.7624    2.9996    4.8085 H         1 <0>         0.4361
     45 H23         6.3710    2.9608    4.3252 H         1 <0>         0.4358
     46 H24         3.4984    0.0058    2.8412 H         1 <0>         0.3848
     47 H25         4.7989   -1.5112    3.9462 H         1 <0>         0.0666
     48 H26         4.1908   -3.1775    3.7982 H         1 <0>         0.0984
     49 H27         5.5639   -2.6394    2.8016 H         1 <0>         0.0951
     50 H28         3.1066    2.5037    3.2614 H         1 <0>         0.4355
@<TRIPOS>BOND
     1    1    2 1
     2    1   27 1
     3    1   28 1
     4    1   29 1
     5    2    3 1
     6    2   30 1
     7    2   31 1
     8    3    4 1
     9    3    6 1
    10    3   32 1
    11    4    5 1
    12    4   33 1
    13    4   34 1
    14    5   35 1
    15    5   36 1
    16    5   37 1
    17    6    7 1
    18    6    8 1
    19    6   23 1
    20    8    9 1
    21    8   14 1
    22    8   10 1
    23   10   11 1
    24   10   38 1
    25   10   39 1
    26   11   12 1
    27   11   13 1
    28   11   20 1
    29   13   14 1
    30   13   40 1
    31   13   41 1
    32   14   15 1
    33   14   16 1
    34   16   17 2
    35   16   50 1
    36   17   18 1
    37   17   19 1
    38   18   42 1
    39   18   43 1
    40   19   44 1
    41   19   45 1
    42   20   21 2
    43   20   22 1
    44   23   24 am
    45   23   46 1
    46   24   25 2
    47   24   26 1
    48   26   47 1
    49   26   48 1
    50   26   49 1
@<TRIPOS>MOLECULE
CHEMBL55440
   29    29     0     0     0
SMALL
USER_CHARGES

@<TRIPOS>ATOM
      1 C1         -0.1758    1.5111   -0.5618 C.3       1 <0>        -0.1739
      2 C2         -0.1586    0.0043   -0.5768 C.2       1 <0>         0.5044
      3 O1          0.7550   -0.5864   -1.1130 O.2       1 <0>        -0.5056
      4 N1         -1.1583   -0.6869    0.0056 N.am      1 <0>        -0.6793
      5 C3         -1.1914   -2.0782   -0.0885 C.ar      1 <0>         0.1384
      6 C4         -0.0044   -2.8018   -0.0908 C.ar      1 <0>        -0.1223
      7 C5         -0.0316   -4.1752   -0.1835 C.ar      1 <0>        -0.0344
      8 C6         -1.2554   -4.8468   -0.2757 C.ar      1 <0>        -0.1227
      9 C7         -2.4508   -4.1204   -0.2736 C.ar      1 <0>        -0.0441
     10 C8         -2.4176   -2.7423   -0.1745 C.ar      1 <0>         0.0122
     11 N2         -3.6130   -2.0111   -0.1662 N.pl3     1 <0>        -0.6249
     12 C9         -3.9941   -1.3092   -1.2786 C.cat     1 <0>         0.7405
     13 N3         -5.1755   -0.6943   -1.3059 N.pl3     1 <0>        -0.7974
     14 N4         -3.1833   -1.2413   -2.3335 N.pl3     1 <0>        -0.7861
     15 C10        -1.2851   -6.3156   -0.3754 C.2       1 <0>         0.5153
     16 O2         -0.2389   -6.9498   -0.3776 O.co2     1 <0>        -0.6679
     17 O3         -2.3559   -6.9017   -0.4560 O.co2     1 <0>        -0.6781
     18 H1          0.7070    1.8897   -1.0769 H         1 <0>         0.1018
     19 H2         -1.0728    1.8692   -1.0670 H         1 <0>         0.0874
     20 H3         -0.1742    1.8642    0.4694 H         1 <0>         0.0941
     21 H4         -1.8548   -0.2169    0.4903 H         1 <0>         0.4055
     22 H5          0.9415   -2.2854   -0.0200 H         1 <0>         0.1491
     23 H6          0.8924   -4.7344   -0.1854 H         1 <0>         0.1474
     24 H7         -3.3974   -4.6354   -0.3450 H         1 <0>         0.1451
     25 H8         -4.1705   -2.0021    0.6275 H         1 <0>         0.4374
     26 H9         -5.7658   -0.7437   -0.5378 H         1 <0>         0.4394
     27 H10        -2.3564   -1.7483   -2.3430 H         1 <0>         0.4442
     28 H11        -3.4199   -0.6849   -3.0920 H         1 <0>         0.4362
     29 H12        -5.4454   -0.1971   -2.0939 H         1 <0>         0.4384
@<TRIPOS>BOND
     1    1    2 1
     2    1   18 1
     3    1   19 1
     4    1   20 1
     5    2    3 2
     6    2    4 am
     7    4    5 1
     8    4   21 1
     9    5   10 ar
    10    5    6 ar
    11    6    7 ar
    12    6   22 1
    13    7    8 ar
    14    7   23 1
    15    8    9 ar
    16    8   15 1
    17    9   10 ar
    18    9   24 1
    19   10   11 1
    20   11   12 1
    21   11   25 1
    22   12   13 2
    23   12   14 1
    24   13   26 1
    25   13   29 1
    26   14   27 1
    27   14   28 1
    28   15   16 2
    29   15   17 1
@<TRIPOS>MOLECULE
CHEMBL294427
   46    47     0     0     0
SMALL
USER_CHARGES

@<TRIPOS>ATOM
      1 C1         -2.5975    1.3557   -0.4984 C.3       1 <0>        -0.1763
      2 C2         -2.3544   -0.1279   -0.6023 C.2       1 <0>         0.5159
      3 O1         -3.0466   -0.8063   -1.3313 O.2       1 <0>        -0.5439
      4 N1         -1.3676   -0.7009    0.1150 N.am      1 <0>        -0.7157
      5 C3         -1.1966   -2.1558    0.0939 C.3       1 <0>         0.1429
      6 C4         -0.5322   -2.6101    1.3950 C.3       1 <0>        -0.1031
      7 H1         -0.3833   -3.6899    1.3895 H         1 <0>         0.1050
      8 C5          0.8174   -1.8779    1.5990 C.3       1 <0>        -0.0866
      9 C6          1.0243   -1.9633    3.1316 C.3       1 <0>        -0.1574
     10 C7         -0.3909   -1.7742    3.7156 C.3       1 <0>        -0.1135
     11 C8         -1.3824   -2.1886    2.6113 C.3       1 <0>         0.1114
     12 H2         -2.0200   -1.3450    2.3468 H         1 <0>         0.1086
     13 N2         -2.2020   -3.3148    3.0652 N.pl3     1 <0>        -0.6444
     14 C9         -3.3088   -3.0942    3.7173 C.cat     1 <0>         0.7374
     15 N3         -3.7071   -1.8047    3.9791 N.pl3     1 <0>        -0.8118
     16 N4         -4.0780   -4.1511    4.1433 N.pl3     1 <0>        -0.8193
     17 C10         1.9404   -0.8631    3.6022 C.2       1 <0>         0.4947
     18 O2          1.8169   -0.4057    4.7257 O.co2     1 <0>        -0.6931
     19 O3          2.8050   -0.4303    2.8595 O.co2     1 <0>        -0.6804
     20 C11        -0.3280   -2.5425   -1.0754 C.2       1 <0>         0.5339
     21 O4          0.3925   -1.7167   -1.5948 O.2       1 <0>        -0.5104
     22 N5         -0.3520   -3.8060   -1.5438 N.am      1 <0>        -0.6497
     23 C12        -1.0653   -5.0471   -1.2065 C.3       1 <0>         0.0983
     24 C13         0.1249   -5.8245   -1.7853 C.3       1 <0>        -0.1547
     25 C14         0.3189   -4.5488   -2.6213 C.3       1 <0>         0.1023
     26 H3         -3.4292    1.6338   -1.1457 H         1 <0>         0.0957
     27 H4         -2.8382    1.6131    0.5331 H         1 <0>         0.0905
     28 H5         -1.7011    1.8933   -0.8073 H         1 <0>         0.0967
     29 H6         -0.7707   -0.1501    0.6452 H         1 <0>         0.4144
     30 H7         -2.1709   -2.6348   -0.0031 H         1 <0>         0.1062
     31 H8          1.6201   -2.3933    1.0716 H         1 <0>         0.0822
     32 H9          0.7461   -0.8393    1.2761 H         1 <0>         0.0811
     33 H10         1.4242   -2.9386    3.4089 H         1 <0>         0.0764
     34 H11        -0.5220   -2.4109    4.5905 H         1 <0>         0.0747
     35 H12        -0.5466   -0.7299    3.9865 H         1 <0>         0.0948
     36 H13        -3.1645   -1.0590    3.6785 H         1 <0>         0.4381
     37 H14        -4.5308   -1.6405    4.4644 H         1 <0>         0.4352
     38 H15        -3.7970   -5.0610    3.9586 H         1 <0>         0.4358
     39 H16        -4.9017   -3.9870    4.6286 H         1 <0>         0.4358
     40 H17        -1.1992   -5.1932   -0.1346 H         1 <0>         0.0706
     41 H18        -1.9884   -5.1839   -1.7696 H         1 <0>         0.0873
     42 H19         0.9229   -6.0189   -1.0687 H         1 <0>         0.0980
     43 H20        -0.1554   -6.7010   -2.3697 H         1 <0>         0.0933
     44 H21        -0.2394   -4.5543   -3.5575 H         1 <0>         0.0860
     45 H22         1.3642   -4.2703   -2.7549 H         1 <0>         0.0820
     46 H23        -1.9210   -4.2246    2.8805 H         1 <0>         0.4349
@<TRIPOS>BOND
     1    1    2 1
     2    1   26 1
     3    1   27 1
     4    1   28 1
     5    2    3 2
     6    2    4 am
     7    4    5 1
     8    4   29 1
     9    5    6 1
    10    5   20 1
    11    5   30 1
    12    6    7 1
    13    6   11 1
    14    6    8 1
    15    8    9 1
    16    8   31 1
    17    8   32 1
    18    9   10 1
    19    9   17 1
    20    9   33 1
    21   10   11 1
    22   10   34 1
    23   10   35 1
    24   11   12 1
    25   11   13 1
    26   13   14 2
    27   13   46 1
    28   14   15 1
    29   14   16 1
    30   15   36 1
    31   15   37 1
    32   16   38 1
    33   16   39 1
    34   17   18 2
    35   17   19 1
    36   20   21 2
    37   20   22 am
    38   22   25 1
    39   22   23 1
    40   23   24 1
    41   23   40 1
    42   23   41 1
    43   24   25 1
    44   24   42 1
    45   24   43 1
    46   25   44 1
    47   25   45 1
@<TRIPOS>MOLECULE
CHEMBL294427__1
   46    47     0     0     0
SMALL
USER_CHARGES

@<TRIPOS>ATOM
      1 C1         -2.4404    1.4032   -0.5613 C.3       1 <0>        -0.1761
      2 C2         -2.2659   -0.0918   -0.6367 C.2       1 <0>         0.5154
      3 O1         -2.9968   -0.7527   -1.3437 O.2       1 <0>        -0.5437
      4 N1         -1.2977   -0.6943    0.0816 N.am      1 <0>        -0.7149
      5 C3         -1.1966   -2.1558    0.0939 C.3       1 <0>         0.1411
      6 C4         -0.5322   -2.6101    1.3950 C.3       1 <0>        -0.0939
      7 H1         -0.3866   -3.6903    1.3822 H         1 <0>         0.1033
      8 C5          0.8203   -1.8981    1.5729 C.3       1 <0>        -0.1122
      9 C6          0.7229   -1.0877    2.8820 C.3       1 <0>        -0.1544
     10 C7         -0.3805   -1.8098    3.6944 C.3       1 <0>        -0.1122
     11 C8         -1.4048   -2.2087    2.6022 C.3       1 <0>         0.1106
     12 H2         -2.0409   -1.3609    2.3480 H         1 <0>         0.1123
     13 N2         -2.2159   -3.3441    3.0486 N.pl3     1 <0>        -0.6432
     14 C9         -3.3321   -3.1360    3.6887 C.cat     1 <0>         0.7379
     15 N3         -3.7483   -1.8510    3.9449 N.pl3     1 <0>        -0.8136
     16 N4         -4.0933   -4.2015    4.1076 N.pl3     1 <0>        -0.8185
     17 C10         2.0340   -1.1249    3.6240 C.2       1 <0>         0.4968
     18 O2          2.4495   -0.1215    4.1782 O.co2     1 <0>        -0.6861
     19 O3          2.6792   -2.1584    3.6703 O.co2     1 <0>        -0.6863
     20 C11        -0.3678   -2.6118   -1.0792 C.2       1 <0>         0.5346
     21 O4          0.3822   -1.8344   -1.6306 O.2       1 <0>        -0.5146
     22 N5         -0.4601   -3.8836   -1.5157 N.am      1 <0>        -0.6486
     23 C12        -1.2258   -5.0805   -1.1361 C.3       1 <0>         0.0980
     24 C13        -0.0842   -5.9280   -1.7147 C.3       1 <0>        -0.1547
     25 C14         0.1558   -4.6835   -2.5851 C.3       1 <0>         0.1022
     26 H3         -3.2662    1.7055   -1.2053 H         1 <0>         0.0957
     27 H4         -2.6569    1.6923    0.4671 H         1 <0>         0.0909
     28 H5         -1.5242    1.8930   -0.8913 H         1 <0>         0.0959
     29 H6         -0.6678   -0.1603    0.5905 H         1 <0>         0.4142
     30 H7         -2.1941   -2.5896    0.0245 H         1 <0>         0.1059
     31 H8          1.6221   -2.6327    1.6473 H         1 <0>         0.0980
     32 H9          1.0033   -1.2288    0.7322 H         1 <0>         0.0766
     33 H10         0.4310   -0.0586    2.6728 H         1 <0>         0.0745
     34 H11         0.0203   -2.6946    4.1889 H         1 <0>         0.0906
     35 H12        -0.8324   -1.1324    4.4191 H         1 <0>         0.0773
     36 H13        -3.2112   -1.0992    3.6493 H         1 <0>         0.4374
     37 H14        -4.5790   -1.6961    4.4212 H         1 <0>         0.4353
     38 H15        -3.7996   -5.1081    3.9268 H         1 <0>         0.4364
     39 H16        -4.9239   -4.0466    4.5839 H         1 <0>         0.4359
     40 H17        -1.3480   -5.1941   -0.0590 H         1 <0>         0.0706
     41 H18        -2.1640   -5.1863   -1.6808 H         1 <0>         0.0875
     42 H19         0.7159   -6.1432   -1.0064 H         1 <0>         0.0992
     43 H20        -0.4161   -6.8037   -2.2724 H         1 <0>         0.0937
     44 H21        -0.4182   -4.6847   -3.5117 H         1 <0>         0.0862
     45 H22         1.2108   -4.4589   -2.7424 H         1 <0>         0.0822
     46 H23        -1.9223   -4.2508    2.8678 H         1 <0>         0.4365
@<TRIPOS>BOND
     1    1    2 1
     2    1   26 1
     3    1   27 1
     4    1   28 1
     5    2    3 2
     6    2    4 am
     7    4    5 1
     8    4   29 1
     9    5    6 1
    10    5   20 1
    11    5   30 1
    12    6    7 1
    13    6   11 1
    14    6    8 1
    15    8    9 1
    16    8   31 1
    17    8   32 1
    18    9   10 1
    19    9   17 1
    20    9   33 1
    21   10   11 1
    22   10   34 1
    23   10   35 1
    24   11   12 1
    25   11   13 1
    26   13   14 2
    27   13   46 1
    28   14   15 1
    29   14   16 1
    30   15   36 1
    31   15   37 1
    32   16   38 1
    33   16   39 1
    34   17   18 2
    35   17   19 1
    36   20   21 2
    37   20   22 am
    38   22   25 1
    39   22   23 1
    40   23   24 1
    41   23   40 1
    42   23   41 1
    43   24   25 1
    44   24   42 1
    45   24   43 1
    46   25   44 1
    47   25   45 1
@<TRIPOS>MOLECULE
CHEMBL294427__2
   46    47     0     0     0
SMALL
USER_CHARGES

@<TRIPOS>ATOM
      1 C1         -0.0184    1.5028    0.0103 C.3       1 <0>        -0.1742
      2 C2          0.0021   -0.0041    0.0020 C.2       1 <0>         0.5070
      3 O1          1.0605   -0.5961   -0.0113 O.2       1 <0>        -0.5048
      4 N1         -1.1558   -0.6938    0.0094 N.am      1 <0>        -0.7280
      5 C3         -1.1360   -2.1586    0.0013 C.3       1 <0>         0.1423
      6 C4         -0.4198   -2.6520   -1.2575 C.3       1 <0>        -0.1081
      7 H1          0.6094   -2.2935   -1.2750 H         1 <0>         0.1133
      8 C5         -0.4564   -4.1987   -1.3309 C.3       1 <0>        -0.0917
      9 C6         -0.2754   -4.4735   -2.8445 C.3       1 <0>        -0.1570
     10 C7         -1.0835   -3.3533   -3.5316 C.3       1 <0>        -0.1131
     11 C8         -1.1733   -2.1922   -2.5226 C.3       1 <0>         0.1185
     12 H2         -2.2165   -1.9871   -2.2821 H         1 <0>         0.1038
     13 N2         -0.5401   -0.9925   -3.0757 N.pl3     1 <0>        -0.6386
     14 C9         -1.2354   -0.1661   -3.8055 C.cat     1 <0>         0.7333
     15 N3         -2.5630   -0.4202   -4.0561 N.pl3     1 <0>        -0.8139
     16 N4         -0.6410    0.9597   -4.3245 N.pl3     1 <0>        -0.8216
     17 C10        -0.8350   -5.8252   -3.2058 C.2       1 <0>         0.4974
     18 O2         -1.2904   -6.0184   -4.3201 O.co2     1 <0>        -0.6929
     19 O3         -0.8323   -6.7257   -2.3838 O.co2     1 <0>        -0.6837
     20 C11        -0.4071   -2.6578    1.2222 C.2       1 <0>         0.5326
     21 O4          0.3501   -1.9224    1.8194 O.2       1 <0>        -0.5143
     22 N5         -0.5967   -3.9216    1.6505 N.am      1 <0>        -0.6448
     23 C12        -1.3935   -5.0787    1.2157 C.3       1 <0>         0.0921
     24 C13        -1.4040   -5.5516    2.6759 C.3       1 <0>        -0.1572
     25 C14        -0.0928   -4.7524    2.7544 C.3       1 <0>         0.1064
     26 H3          1.0042    1.8801    0.0026 H         1 <0>         0.0948
     27 H4         -0.5455    1.8639   -0.8728 H         1 <0>         0.0773
     28 H5         -0.5286    1.8543    0.9071 H         1 <0>         0.0906
     29 H6         -2.0023   -0.2203    0.0200 H         1 <0>         0.4026
     30 H7         -2.1585   -2.5359    0.0090 H         1 <0>         0.1124
     31 H8          0.3639   -4.6321   -0.7588 H         1 <0>         0.0791
     32 H9         -1.4161   -4.5795   -0.9813 H         1 <0>         0.0842
     33 H10         0.7771   -4.4090   -3.1207 H         1 <0>         0.0742
     34 H11        -0.5699   -3.0223   -4.4342 H         1 <0>         0.0718
     35 H12        -2.0823   -3.7121   -3.7801 H         1 <0>         0.0936
     36 H13        -2.9823   -1.2146   -3.6899 H         1 <0>         0.4378
     37 H14        -3.0805    0.1948   -4.5991 H         1 <0>         0.4339
     38 H15         0.2957    1.1391   -4.1477 H         1 <0>         0.4357
     39 H16        -1.1585    1.5748   -4.8676 H         1 <0>         0.4349
     40 H17        -2.3805   -4.8094    0.8395 H         1 <0>         0.0769
     41 H18        -0.8553   -5.7494    0.5460 H         1 <0>         0.1100
     42 H19        -2.2182   -5.1407    3.2729 H         1 <0>         0.0922
     43 H20        -1.2774   -6.6273    2.7983 H         1 <0>         0.0955
     44 H21         0.7883   -5.3372    2.4904 H         1 <0>         0.0877
     45 H22         0.0284   -4.2051    3.6892 H         1 <0>         0.0756
     46 H23         0.3967   -0.8132   -2.8989 H         1 <0>         0.4364
@<TRIPOS>BOND
     1    1    2 1
     2    1   26 1
     3    1   27 1
     4    1   28 1
     5    2    3 2
     6    2    4 am
     7    4    5 1
     8    4   29 1
     9    5    6 1
    10    5   20 1
    11    5   30 1
    12    6    7 1
    13    6   11 1
    14    6    8 1
    15    8    9 1
    16    8   31 1
    17    8   32 1
    18    9   10 1
    19    9   17 1
    20    9   33 1
    21   10   11 1
    22   10   34 1
    23   10   35 1
    24   11   12 1
    25   11   13 1
    26   13   14 2
    27   13   46 1
    28   14   15 1
    29   14   16 1
    30   15   36 1
    31   15   37 1
    32   16   38 1
    33   16   39 1
    34   17   18 2
    35   17   19 1
    36   20   21 2
    37   20   22 am
    38   22   25 1
    39   22   23 1
    40   23   24 1
    41   23   40 1
    42   23   41 1
    43   24   25 1
    44   24   42 1
    45   24   43 1
    46   25   44 1
    47   25   45 1
@<TRIPOS>MOLECULE
CHEMBL294427__3
   46    47     0     0     0
SMALL
USER_CHARGES

@<TRIPOS>ATOM
      1 C1          0.3161    1.3121   -0.8193 C.3       1 <0>        -0.1745
      2 C2          0.2067   -0.1673   -0.5539 C.2       1 <0>         0.4983
      3 O1          1.1971   -0.8660   -0.5972 O.2       1 <0>        -0.4909
      4 N1         -0.9917   -0.7139   -0.2684 N.am      1 <0>        -0.7311
      5 C3         -1.0980   -2.1521   -0.0103 C.3       1 <0>         0.1433
      6 C4         -0.6216   -2.9275   -1.2402 C.3       1 <0>        -0.0993
      7 H1          0.4405   -2.7476   -1.4064 H         1 <0>         0.1125
      8 C5         -0.8773   -4.4324   -1.0462 C.3       1 <0>        -0.1078
      9 C6         -1.8338   -4.8662   -2.1761 C.3       1 <0>        -0.1533
     10 C7         -1.6133   -3.8097   -3.2870 C.3       1 <0>        -0.1130
     11 C8         -1.4308   -2.4984   -2.4816 C.3       1 <0>         0.1191
     12 H2         -2.3991   -2.0952   -2.1850 H         1 <0>         0.1075
     13 N2         -0.6823   -1.5134   -3.2662 N.pl3     1 <0>        -0.6363
     14 C9         -1.3172   -0.6760   -4.0373 C.cat     1 <0>         0.7331
     15 N3         -2.6892   -0.7171   -4.1144 N.pl3     1 <0>        -0.8160
     16 N4         -0.6147    0.2484   -4.7737 N.pl3     1 <0>        -0.8209
     17 C10        -1.4706   -6.2407   -2.6759 C.2       1 <0>         0.4957
     18 O2         -2.3483   -7.0408   -2.9515 O.co2     1 <0>        -0.6886
     19 O3         -0.2990   -6.5527   -2.8047 O.co2     1 <0>        -0.6856
     20 C11        -0.2409   -2.5145    1.1750 C.2       1 <0>         0.5296
     21 O4          0.8142   -1.9448    1.3573 O.2       1 <0>        -0.5021
     22 N5         -0.6467   -3.4717    2.0326 N.am      1 <0>        -0.6482
     23 C12        -1.7721   -4.4153    2.1110 C.3       1 <0>         0.0924
     24 C13        -1.6119   -4.3953    3.6375 C.3       1 <0>        -0.1545
     25 C14        -0.1557   -4.0367    3.2985 C.3       1 <0>         0.1049
     26 H3          1.3545    1.5676   -1.0302 H         1 <0>         0.0954
     27 H4         -0.3039    1.5742   -1.6767 H         1 <0>         0.0766
     28 H5         -0.0233    1.8645    0.0569 H         1 <0>         0.0901
     29 H6         -1.7838   -0.1551   -0.2337 H         1 <0>         0.4025
     30 H7         -2.1364   -2.4076    0.2005 H         1 <0>         0.1097
     31 H8          0.0607   -4.9829   -1.1190 H         1 <0>         0.0941
     32 H9         -1.3407   -4.6103   -0.0758 H         1 <0>         0.0686
     33 H10        -2.8672   -4.8458   -1.8300 H         1 <0>         0.0748
     34 H11        -0.7161   -4.0363   -3.8631 H         1 <0>         0.0880
     35 H12        -2.4855   -3.7454   -3.9376 H         1 <0>         0.0754
     36 H13        -3.1848   -1.3693   -3.5948 H         1 <0>         0.4368
     37 H14        -3.1616   -0.0939   -4.6882 H         1 <0>         0.4338
     38 H15         0.3533    0.2774   -4.7193 H         1 <0>         0.4365
     39 H16        -1.0872    0.8716   -5.3475 H         1 <0>         0.4348
     40 H17        -2.7169   -3.9935    1.7681 H         1 <0>         0.0785
     41 H18        -1.5565   -5.3860    1.6646 H         1 <0>         0.0974
     42 H19        -2.1674   -3.6002    4.1348 H         1 <0>         0.0941
     43 H20        -1.7313   -5.3693    4.1121 H         1 <0>         0.0950
     44 H21         0.4860   -4.9077    3.1651 H         1 <0>         0.0882
     45 H22         0.2765   -3.2925    3.9673 H         1 <0>         0.0768
     46 H23         0.2857   -1.4844   -3.2119 H         1 <0>         0.4388
@<TRIPOS>BOND
     1    1    2 1
     2    1   26 1
     3    1   27 1
     4    1   28 1
     5    2    3 2
     6    2    4 am
     7    4    5 1
     8    4   29 1
     9    5    6 1
    10    5   20 1
    11    5   30 1
    12    6    7 1
    13    6   11 1
    14    6    8 1
    15    8    9 1
    16    8   31 1
    17    8   32 1
    18    9   10 1
    19    9   17 1
    20    9   33 1
    21   10   11 1
    22   10   34 1
    23   10   35 1
    24   11   12 1
    25   11   13 1
    26   13   14 2
    27   13   46 1
    28   14   15 1
    29   14   16 1
    30   15   36 1
    31   15   37 1
    32   16   38 1
    33   16   39 1
    34   17   18 2
    35   17   19 1
    36   20   21 2
    37   20   22 am
    38   22   25 1
    39   22   23 1
    40   23   24 1
    41   23   40 1
    42   23   41 1
    43   24   25 1
    44   24   42 1
    45   24   43 1
    46   25   44 1
    47   25   45 1
@<TRIPOS>MOLECULE
CHEMBL311288
   45    45     0     0     0
SMALL
USER_CHARGES

@<TRIPOS>ATOM
      1 C1          0.8975    0.1870    1.2505 C.3       1 <0>        -0.1521
      2 C2          0.1330   -0.9221    0.5250 C.3       1 <0>        -0.1225
      3 C3         -1.2784   -0.4346    0.1913 C.3       1 <0>         0.0937
      4 H1         -1.2174    0.4968   -0.3716 H         1 <0>         0.0661
      5 C4         -1.9979   -1.4919   -0.6485 C.3       1 <0>        -0.1139
      6 C5         -3.3409   -0.9618   -1.0804 C.2       1 <0>        -0.1594
      7 C6         -3.6586   -0.9400   -2.3511 C.2       1 <0>        -0.1908
      8 O1         -2.0044   -0.2128    1.4020 O.3       1 <0>        -0.3387
      9 C7         -2.8097    0.9676    1.3888 C.3       1 <0>         0.1172
     10 H2         -3.2267    1.1095    0.3918 H         1 <0>         0.0759
     11 C8         -1.9611    2.1529    1.7464 C.2       1 <0>        -0.1631
     12 C9         -2.3492    3.1119    2.5634 C.2       1 <0>        -0.1609
     13 C10        -3.6859    3.1360    3.2457 C.3       1 <0>        -0.0813
     14 C11        -4.6492    2.1711    2.5513 C.3       1 <0>         0.0203
     15 H3         -4.9137    2.5617    1.5687 H         1 <0>         0.1499
     16 C12        -3.9493    0.8155    2.3984 C.3       1 <0>         0.1318
     17 H4         -3.5464    0.4987    3.3604 H         1 <0>         0.1269
     18 N1         -4.9090   -0.1784    1.9112 N.am      1 <0>        -0.7553
     19 C13        -4.7003   -1.4888    2.1471 C.2       1 <0>         0.5114
     20 O2         -3.7180   -1.8453    2.7628 O.2       1 <0>        -0.4909
     21 C14        -5.6875   -2.5112    1.6460 C.3       1 <0>        -0.1736
     22 N2         -5.8632    2.0158    3.3638 N.4       1 <0>        -0.6301
     23 C15        -1.4218    4.2193    2.8199 C.2       1 <0>         0.5112
     24 O3         -0.3231    4.2345    2.2812 O.co2     1 <0>        -0.6708
     25 O4         -1.7469    5.1278    3.5726 O.co2     1 <0>        -0.6878
     26 H5          1.9303   -0.1251    1.4054 H         1 <0>         0.0544
     27 H6          0.8788    1.0952    0.6480 H         1 <0>         0.0564
     28 H7          0.4280    0.3810    2.2149 H         1 <0>         0.0629
     29 H8          0.6553   -1.1809   -0.3961 H         1 <0>         0.0726
     30 H9          0.0715   -1.8009    1.1669 H         1 <0>         0.0704
     31 H10        -1.3994   -1.7257   -1.5289 H         1 <0>         0.0776
     32 H11        -2.1378   -2.3947   -0.0540 H         1 <0>         0.0805
     33 H12        -4.0413   -0.5998   -0.3423 H         1 <0>         0.1042
     34 H13        -4.6211   -0.5600   -2.6606 H         1 <0>         0.0954
     35 H14        -2.9582   -1.3019   -3.0892 H         1 <0>         0.0985
     36 H15        -0.9759    2.2240    1.3097 H         1 <0>         0.1380
     37 H16        -3.5652    2.8388    4.2875 H         1 <0>         0.0958
     38 H17        -4.0942    4.1458    3.2051 H         1 <0>         0.1107
     39 H18        -5.6946    0.1067    1.4188 H         1 <0>         0.3943
     40 H19        -6.4979   -2.0065    1.1201 H         1 <0>         0.0740
     41 H20        -5.1850   -3.1983    0.9651 H         1 <0>         0.1005
     42 H21        -6.0937   -3.0684    2.4901 H         1 <0>         0.0981
     43 H22        -6.3104    2.9134    3.4751 H         1 <0>         0.4404
     44 H23        -6.4966    1.3792    2.9037 H         1 <0>         0.4266
     45 H24        -5.6164    1.6483    4.2704 H         1 <0>         0.4356
@<TRIPOS>BOND
     1    1    2 1
     2    1   26 1
     3    1   27 1
     4    1   28 1
     5    2    3 1
     6    2   29 1
     7    2   30 1
     8    3    4 1
     9    3    5 1
    10    3    8 1
    11    5    6 1
    12    5   31 1
    13    5   32 1
    14    6    7 2
    15    6   33 1
    16    7   34 1
    17    7   35 1
    18    8    9 1
    19    9   10 1
    20    9   16 1
    21    9   11 1
    22   11   12 2
    23   11   36 1
    24   12   13 1
    25   12   23 1
    26   13   14 1
    27   13   37 1
    28   13   38 1
    29   14   15 1
    30   14   16 1
    31   14   22 1
    32   16   17 1
    33   16   18 1
    34   18   19 am
    35   18   39 1
    36   19   20 2
    37   19   21 1
    38   21   40 1
    39   21   41 1
    40   21   42 1
    41   22   43 1
    42   22   44 1
    43   22   45 1
    44   23   24 2
    45   23   25 1
@<TRIPOS>MOLECULE
CHEMBL406252
   37    38     0     0     0
SMALL
USER_CHARGES

@<TRIPOS>ATOM
      1 C1         -0.0184    1.5028    0.0103 C.3       1 <0>        -0.1767
      2 C2          0.0021   -0.0041    0.0020 C.2       1 <0>         0.5018
      3 O1          1.0605   -0.5961   -0.0113 O.2       1 <0>        -0.4948
      4 N1         -1.1558   -0.6938    0.0094 N.am      1 <0>        -0.7507
      5 C3         -1.1360   -2.1586    0.0013 C.3       1 <0>         0.1361
      6 H1         -0.2845   -2.5164    0.5802 H         1 <0>         0.1153
      7 C4         -1.0266   -2.6644   -1.4423 C.3       1 <0>         0.0926
      8 H2         -1.9464   -2.4364   -1.9809 H         1 <0>         0.0431
      9 C5         -0.8109   -4.1789   -1.4116 C.3       1 <0>        -0.0845
     10 C6         -1.8286   -4.8276   -0.5192 C.2       1 <0>        -0.0651
     11 C7         -2.5429   -4.1726    0.3744 C.2       1 <0>        -0.2447
     12 C8         -2.4333   -2.6936    0.6111 C.3       1 <0>         0.0771
     13 H3         -3.2835   -2.1922    0.1487 H         1 <0>         0.1344
     14 N2         -2.4396   -2.4252    2.0553 N.4       1 <0>        -0.4038
     15 C9         -2.8598   -1.0529    2.3949 C.3       1 <0>        -0.0027
     16 C10        -3.6058   -1.6396    3.6015 C.3       1 <0>        -0.1586
     17 C11        -3.6562   -2.9064    2.7360 C.3       1 <0>         0.0043
     18 C12        -2.0409   -6.2734   -0.6492 C.2       1 <0>         0.5024
     19 O2         -2.8623   -6.8376    0.0612 O.co2     1 <0>        -0.6766
     20 O3         -1.3967   -6.9152   -1.4681 O.co2     1 <0>        -0.6637
     21 N3          0.1095   -2.0137   -2.1085 N.3       1 <0>        -0.8274
     22 H4          1.0042    1.8801    0.0026 H         1 <0>         0.0982
     23 H5         -0.5455    1.8639   -0.8728 H         1 <0>         0.0902
     24 H6         -0.5286    1.8543    0.9071 H         1 <0>         0.0871
     25 H7         -2.0023   -0.2203    0.0200 H         1 <0>         0.3967
     26 H8         -0.9085   -4.5784   -2.4210 H         1 <0>         0.0964
     27 H9          0.1892   -4.3939   -1.0351 H         1 <0>         0.0991
     28 H10        -3.2457   -4.7323    0.9738 H         1 <0>         0.1439
     29 H11        -2.0313   -0.4010    2.6717 H         1 <0>         0.1306
     30 H12        -3.5199   -0.6046    1.6523 H         1 <0>         0.1439
     31 H13        -2.9956   -1.7365    4.4995 H         1 <0>         0.1204
     32 H14        -4.5799   -1.1869    3.7872 H         1 <0>         0.1264
     33 H15        -4.5287   -2.9527    2.0844 H         1 <0>         0.1497
     34 H16        -3.5025   -3.8253    3.3018 H         1 <0>         0.1378
     35 H17         0.2007   -2.3322   -3.0616 H         1 <0>         0.3504
     36 H18         0.0244   -1.0090   -2.0696 H         1 <0>         0.3362
     37 H19        -1.5856   -2.7088    2.5118 H         1 <0>         0.4350
@<TRIPOS>BOND
     1    1    2 1
     2    1   22 1
     3    1   23 1
     4    1   24 1
     5    2    3 2
     6    2    4 am
     7    4    5 1
     8    4   25 1
     9    5    6 1
    10    5   12 1
    11    5    7 1
    12    7    8 1
    13    7    9 1
    14    7   21 1
    15    9   10 1
    16    9   26 1
    17    9   27 1
    18   10   11 2
    19   10   18 1
    20   11   12 1
    21   11   28 1
    22   12   13 1
    23   12   14 1
    24   14   17 1
    25   14   15 1
    26   14   37 1
    27   15   16 1
    28   15   29 1
    29   15   30 1
    30   16   17 1
    31   16   31 1
    32   16   32 1
    33   17   33 1
    34   17   34 1
    35   18   19 2
    36   18   20 1
    37   21   35 1
    38   21   36 1
@<TRIPOS>MOLECULE
CHEMBL406252__1
   37    38     0     0     0
SMALL
USER_CHARGES

@<TRIPOS>ATOM
      1 C1         -0.0184    1.5028    0.0103 C.3       1 <0>        -0.1797
      2 C2          0.0021   -0.0041    0.0020 C.2       1 <0>         0.5061
      3 O1          0.0203   -0.6160    1.0489 O.2       1 <0>        -0.5497
      4 N1          0.0001   -0.6716   -1.1688 N.am      1 <0>        -0.7336
      5 C3          0.0199   -2.1365   -1.1769 C.3       1 <0>         0.1348
      6 H1         -0.5559   -2.5151   -0.3324 H         1 <0>         0.1282
      7 C4          1.4676   -2.6326   -1.0772 C.3       1 <0>         0.0150
      8 H2          2.0042   -2.3828   -1.9925 H         1 <0>         0.1430
      9 C5          1.4491   -4.1511   -0.8905 C.3       1 <0>        -0.0822
     10 C6          0.5618   -4.7875   -1.9203 C.2       1 <0>        -0.1524
     11 C7         -0.3372   -4.1263   -2.6219 C.2       1 <0>        -0.1404
     12 C8         -0.5857   -2.6515   -2.4841 C.3       1 <0>         0.0855
     13 H3         -0.1275   -2.1303   -3.3247 H         1 <0>         0.0691
     14 N2         -2.0321   -2.3947   -2.4852 N.3       1 <0>        -0.4579
     15 C9         -2.3247   -1.0218   -2.9375 C.3       1 <0>        -0.0083
     16 C10        -3.4989   -1.5966   -3.7421 C.3       1 <0>        -0.1458
     17 C11        -2.6538   -2.8781   -3.7322 C.3       1 <0>         0.0018
     18 C12         0.7034   -6.2279   -2.1601 C.2       1 <0>         0.5114
     19 O2         -0.0025   -6.7820   -2.9921 O.co2     1 <0>        -0.6726
     20 O3          1.5276   -6.8752   -1.5283 O.co2     1 <0>        -0.6847
     21 N3          2.1287   -1.9983    0.0711 N.4       1 <0>        -0.6274
     22 H4          1.0042    1.8801    0.0026 H         1 <0>         0.1006
     23 H5         -0.5455    1.8639   -0.8728 H         1 <0>         0.0890
     24 H6         -0.5286    1.8543    0.9071 H         1 <0>         0.1046
     25 H7         -0.0145   -0.1822   -2.0061 H         1 <0>         0.4114
     26 H8          2.4618   -4.5405   -0.9957 H         1 <0>         0.1090
     27 H9          1.0746   -4.3882    0.1054 H         1 <0>         0.0958
     28 H10        -0.9322   -4.6772   -3.3352 H         1 <0>         0.1387
     29 H11        -2.6349   -0.3561   -2.1321 H         1 <0>         0.0841
     30 H12        -1.5398   -0.5933   -3.5607 H         1 <0>         0.0658
     31 H13        -4.4302   -1.6718   -3.1808 H         1 <0>         0.0957
     32 H14        -3.6236   -1.1519   -4.7295 H         1 <0>         0.0798
     33 H15        -1.9566   -2.9450   -4.5674 H         1 <0>         0.0768
     34 H16        -3.2428   -3.7857   -3.6002 H         1 <0>         0.0951
     35 H17         1.6340   -2.2363    0.9176 H         1 <0>         0.4394
     36 H18         3.0808   -2.3263    0.1344 H         1 <0>         0.4340
     37 H19         2.1255   -0.9966   -0.0501 H         1 <0>         0.4201
@<TRIPOS>BOND
     1    1    2 1
     2    1   22 1
     3    1   23 1
     4    1   24 1
     5    2    3 2
     6    2    4 am
     7    4    5 1
     8    4   25 1
     9    5    6 1
    10    5   12 1
    11    5    7 1
    12    7    8 1
    13    7    9 1
    14    7   21 1
    15    9   10 1
    16    9   26 1
    17    9   27 1
    18   10   11 2
    19   10   18 1
    20   11   12 1
    21   11   28 1
    22   12   13 1
    23   12   14 1
    24   14   17 1
    25   14   15 1
    26   15   16 1
    27   15   29 1
    28   15   30 1
    29   16   17 1
    30   16   31 1
    31   16   32 1
    32   17   33 1
    33   17   34 1
    34   18   19 2
    35   18   20 1
    36   21   35 1
    37   21   36 1
    38   21   37 1
@<TRIPOS>MOLECULE
CHEMBL301435
   51    51     0     0     0
SMALL
USER_CHARGES

@<TRIPOS>ATOM
      1 C1         -0.1169    1.0724   -0.2225 C.3       1 <0>        -0.1698
      2 C2          0.3951   -0.3485   -0.4675 C.3       1 <0>         0.1145
      3 N1          1.0034   -0.8668    0.7603 N.am      1 <0>        -0.6082
      4 C3          0.1840   -1.5928    1.7338 C.3       1 <0>         0.0879
      5 C4          0.1358   -3.0746    1.3556 C.3       1 <0>        -0.1714
      6 C5          2.3169   -0.6758    0.9942 C.2       1 <0>         0.5034
      7 O1          2.9794   -0.0116    0.2256 O.2       1 <0>        -0.4983
      8 C6          2.9623   -1.2875    2.2109 C.3       1 <0>         0.1326
      9 C7          3.2212   -0.1978    3.2531 C.3       1 <0>        -0.1074
     10 H1          3.8134    0.6089    2.8212 H         1 <0>         0.1157
     11 C8          1.8831    0.3497    3.8089 C.3       1 <0>        -0.0887
     12 C9          2.2954    0.9262    5.1861 C.3       1 <0>        -0.1561
     13 C10         3.3414   -0.0753    5.7178 C.3       1 <0>        -0.1131
     14 C11         3.9333   -0.7892    4.4872 C.3       1 <0>         0.1189
     15 H2          3.7429   -1.8606    4.5503 H         1 <0>         0.1031
     16 N2          5.3743   -0.5391    4.4030 N.pl3     1 <0>        -0.6374
     17 C12         6.2092   -1.3221    5.0265 C.cat     1 <0>         0.7329
     18 N3          5.7375   -2.3826    5.7633 N.pl3     1 <0>        -0.8144
     19 N4          7.5615   -1.0874    4.9474 N.pl3     1 <0>        -0.8216
     20 C13         1.1062    0.9870    6.1098 C.2       1 <0>         0.4967
     21 O2          1.2630    0.8738    7.3136 O.co2     1 <0>        -0.6935
     22 O3         -0.0126    1.1493    5.6534 O.co2     1 <0>        -0.6835
     23 N5          4.2325   -1.9098    1.8291 N.am      1 <0>        -0.7301
     24 C14         5.2116   -1.1622    1.2822 C.2       1 <0>         0.4945
     25 O4          5.0411    0.0256    1.1062 O.2       1 <0>        -0.4875
     26 C15         6.5181   -1.8023    0.8895 C.3       1 <0>        -0.1742
     27 H3          0.7153    1.7131    0.0692 H         1 <0>         0.0599
     28 H4         -0.5695    1.4581   -1.1361 H         1 <0>         0.0652
     29 H5         -0.8611    1.0582    0.5737 H         1 <0>         0.0605
     30 H6         -0.4370   -0.9892   -0.7593 H         1 <0>         0.0766
     31 H7          1.1393   -0.3343   -1.2638 H         1 <0>         0.0791
     32 H8          0.6194   -1.4854    2.7272 H         1 <0>         0.0878
     33 H9         -0.8268   -1.1848    1.7340 H         1 <0>         0.0891
     34 H10        -0.2997   -3.1820    0.3622 H         1 <0>         0.0609
     35 H11         1.1465   -3.4826    1.3554 H         1 <0>         0.0512
     36 H12        -0.4739   -3.6147    2.0800 H         1 <0>         0.0725
     37 H13         2.2997   -2.0434    2.6324 H         1 <0>         0.1123
     38 H14         1.4892    1.1349    3.1637 H         1 <0>         0.0789
     39 H15         1.1568   -0.4542    3.9285 H         1 <0>         0.0800
     40 H16         2.7391    1.9148    5.0685 H         1 <0>         0.0749
     41 H17         4.1283    0.4558    6.2533 H         1 <0>         0.0719
     42 H18         2.8634   -0.7995    6.3774 H         1 <0>         0.0934
     43 H19         4.7834   -2.5482    5.8191 H         1 <0>         0.4376
     44 H20         6.3589   -2.9653    6.2274 H         1 <0>         0.4337
     45 H21         7.8943   -0.3391    4.4276 H         1 <0>         0.4356
     46 H22         8.1829   -1.6701    5.4115 H         1 <0>         0.4346
     47 H23         4.3688   -2.8598    1.9699 H         1 <0>         0.4018
     48 H24         6.4571   -2.1494   -0.1420 H         1 <0>         0.0964
     49 H25         7.3222   -1.0720    0.9801 H         1 <0>         0.0916
     50 H26         6.7201   -2.6484    1.5463 H         1 <0>         0.0725
     51 H27         5.7071    0.2091    3.8831 H         1 <0>         0.4370
@<TRIPOS>BOND
     1    1    2 1
     2    1   27 1
     3    1   28 1
     4    1   29 1
     5    2    3 1
     6    2   30 1
     7    2   31 1
     8    3    4 1
     9    3    6 am
    10    4    5 1
    11    4   32 1
    12    4   33 1
    13    5   34 1
    14    5   35 1
    15    5   36 1
    16    6    7 2
    17    6    8 1
    18    8    9 1
    19    8   23 1
    20    8   37 1
    21    9   10 1
    22    9   14 1
    23    9   11 1
    24   11   12 1
    25   11   38 1
    26   11   39 1
    27   12   13 1
    28   12   20 1
    29   12   40 1
    30   13   14 1
    31   13   41 1
    32   13   42 1
    33   14   15 1
    34   14   16 1
    35   16   17 2
    36   16   51 1
    37   17   18 1
    38   17   19 1
    39   18   43 1
    40   18   44 1
    41   19   45 1
    42   19   46 1
    43   20   21 2
    44   20   22 1
    45   23   24 am
    46   23   47 1
    47   24   25 2
    48   24   26 1
    49   26   48 1
    50   26   49 1
    51   26   50 1
@<TRIPOS>MOLECULE
CHEMBL301435__1
   51    51     0     0     0
SMALL
USER_CHARGES

@<TRIPOS>ATOM
      1 C1         -0.6671    0.6616    0.0776 C.3       1 <0>        -0.1706
      2 C2          0.0189   -0.6782   -0.1969 C.3       1 <0>         0.1151
      3 N1          0.8289   -1.0587    0.9630 N.am      1 <0>        -0.6121
      4 C3          0.2383   -1.8601    2.0378 C.3       1 <0>         0.0882
      5 C4          0.3565   -3.3454    1.6904 C.3       1 <0>        -0.1711
      6 C5          2.1175   -0.6715    1.0413 C.2       1 <0>         0.5027
      7 O1          2.5794    0.0718    0.2016 O.2       1 <0>        -0.4922
      8 C6          2.9843   -1.1621    2.1722 C.3       1 <0>         0.1327
      9 C7          3.2218   -0.0219    3.1644 C.3       1 <0>        -0.1009
     10 H1          3.7835    0.7795    2.6844 H         1 <0>         0.1158
     11 C8          1.8760    0.5148    3.6825 C.3       1 <0>        -0.1098
     12 C9          1.8746    0.2999    5.2102 C.3       1 <0>        -0.1536
     13 C10         3.3757    0.2325    5.5856 C.3       1 <0>        -0.1129
     14 C11         3.9924   -0.5439    4.3947 C.3       1 <0>         0.1161
     15 H2          3.8359   -1.6157    4.5162 H         1 <0>         0.1070
     16 N2          5.4209   -0.2438    4.2702 N.pl3     1 <0>        -0.6360
     17 C12         6.2977   -0.9758    4.8981 C.cat     1 <0>         0.7341
     18 N3          5.8820   -2.0295    5.6772 N.pl3     1 <0>        -0.8161
     19 N4          7.6383   -0.6942    4.7812 N.pl3     1 <0>        -0.8208
     20 C13         1.2086    1.4594    5.9052 C.2       1 <0>         0.4958
     21 O2          0.4734    1.2590    6.8570 O.co2     1 <0>        -0.6892
     22 O3          1.4051    2.5980    5.5159 O.co2     1 <0>        -0.6849
     23 N5          4.2694   -1.6209    1.6389 N.am      1 <0>        -0.7312
     24 C14         5.0644   -0.7649    0.9669 C.2       1 <0>         0.4927
     25 O4          4.7161    0.3853    0.8038 O.2       1 <0>        -0.4826
     26 C15         6.3863   -1.2368    0.4184 C.3       1 <0>        -0.1733
     27 H3          0.0883    1.4260    0.2597 H         1 <0>         0.0624
     28 H4         -1.2698    0.9447   -0.7854 H         1 <0>         0.0658
     29 H5         -1.3085    0.5686    0.9540 H         1 <0>         0.0585
     30 H6         -0.7365   -1.4426   -0.3790 H         1 <0>         0.0762
     31 H7          0.6603   -0.5852   -1.0732 H         1 <0>         0.0796
     32 H8          0.7660   -1.6620    2.9707 H         1 <0>         0.0865
     33 H9         -0.8131   -1.5962    2.1520 H         1 <0>         0.0881
     34 H10        -0.1712   -3.5435    0.7575 H         1 <0>         0.0619
     35 H11         1.4079   -3.6093    1.5762 H         1 <0>         0.0520
     36 H12        -0.0829   -3.9417    2.4901 H         1 <0>         0.0718
     37 H13         2.4860   -1.9878    2.6801 H         1 <0>         0.1100
     38 H14         1.7849    1.5768    3.4548 H         1 <0>         0.0952
     39 H15         1.0537   -0.0370    3.2271 H         1 <0>         0.0702
     40 H16         1.3756   -0.6355    5.4634 H         1 <0>         0.0740
     41 H17         3.8018    1.2333    5.6556 H         1 <0>         0.0883
     42 H18         3.5165   -0.3145    6.5179 H         1 <0>         0.0753
     43 H19         4.9361   -2.2282    5.7597 H         1 <0>         0.4368
     44 H20         6.5345   -2.5742    6.1445 H         1 <0>         0.4338
     45 H21         7.9316    0.0492    4.2315 H         1 <0>         0.4361
     46 H22         8.2908   -1.2390    5.2485 H         1 <0>         0.4347
     47 H23         4.5480   -2.5408    1.7694 H         1 <0>         0.4009
     48 H24         6.2453   -1.6147   -0.5943 H         1 <0>         0.0957
     49 H25         7.0904   -0.4049    0.4010 H         1 <0>         0.0929
     50 H26         6.7793   -2.0322    1.0516 H         1 <0>         0.0723
     51 H27         5.7142    0.4996    3.7204 H         1 <0>         0.4378
@<TRIPOS>BOND
     1    1    2 1
     2    1   27 1
     3    1   28 1
     4    1   29 1
     5    2    3 1
     6    2   30 1
     7    2   31 1
     8    3    4 1
     9    3    6 am
    10    4    5 1
    11    4   32 1
    12    4   33 1
    13    5   34 1
    14    5   35 1
    15    5   36 1
    16    6    7 2
    17    6    8 1
    18    8    9 1
    19    8   23 1
    20    8   37 1
    21    9   10 1
    22    9   14 1
    23    9   11 1
    24   11   12 1
    25   11   38 1
    26   11   39 1
    27   12   13 1
    28   12   20 1
    29   12   40 1
    30   13   14 1
    31   13   41 1
    32   13   42 1
    33   14   15 1
    34   14   16 1
    35   16   17 2
    36   16   51 1
    37   17   18 1
    38   17   19 1
    39   18   43 1
    40   18   44 1
    41   19   45 1
    42   19   46 1
    43   20   21 2
    44   20   22 1
    45   23   24 am
    46   23   47 1
    47   24   25 2
    48   24   26 1
    49   26   48 1
    50   26   49 1
    51   26   50 1
@<TRIPOS>MOLECULE
CHEMBL301435__2
   51    51     0     0     0
SMALL
USER_CHARGES

@<TRIPOS>ATOM
      1 C1          0.3407    1.4081   -0.5738 C.3       1 <0>        -0.1657
      2 C2          0.2470   -0.0789   -0.2262 C.3       1 <0>         0.1132
      3 N1          0.8087   -0.3050    1.1078 N.am      1 <0>        -0.6203
      4 C3         -0.0543   -0.2258    2.2890 C.3       1 <0>         0.1022
      5 C4         -0.8214   -1.5399    2.4492 C.3       1 <0>        -0.1859
      6 C5          2.1193   -0.5857    1.2485 C.2       1 <0>         0.4940
      7 O1          2.8527   -0.5568    0.2830 O.2       1 <0>        -0.4642
      8 C6          2.6736   -0.9357    2.6055 C.3       1 <0>         0.1411
      9 C7          2.3815   -2.4059    2.9120 C.3       1 <0>        -0.1158
     10 H1          1.3357   -2.6365    2.7089 H         1 <0>         0.1007
     11 C8          3.3106   -3.3274    2.0834 C.3       1 <0>        -0.0888
     12 C9          3.3275   -4.6335    2.9158 C.3       1 <0>        -0.1651
     13 C10         3.3359   -4.1486    4.3803 C.3       1 <0>        -0.1101
     14 C11         2.7311   -2.7314    4.3788 C.3       1 <0>         0.1134
     15 H2          3.4599   -2.0145    4.7569 H         1 <0>         0.1051
     16 N2          1.5200   -2.6985    5.2025 N.pl3     1 <0>        -0.6450
     17 C12         1.6075   -2.4582    6.4806 C.cat     1 <0>         0.7351
     18 N3          2.8362   -2.2356    7.0557 N.pl3     1 <0>        -0.8125
     19 N4          0.4710   -2.4272    7.2536 N.pl3     1 <0>        -0.8209
     20 C13         4.5698   -5.4329    2.6178 C.2       1 <0>         0.4952
     21 O2          5.0560   -6.1472    3.4779 O.co2     1 <0>        -0.7003
     22 O3          5.0886   -5.3653    1.5165 O.co2     1 <0>        -0.6770
     23 N5          4.1216   -0.7135    2.6137 N.am      1 <0>        -0.7377
     24 C14         4.8846   -1.2063    1.6180 C.2       1 <0>         0.4957
     25 O4          4.3650   -1.7673    0.6766 O.2       1 <0>        -0.4515
     26 C15         6.3835   -1.0603    1.6744 C.3       1 <0>        -0.1694
     27 H3          1.3854    1.7189   -0.5619 H         1 <0>         0.0592
     28 H4         -0.0772    1.5763   -1.5663 H         1 <0>         0.0664
     29 H5         -0.2194    1.9886    0.1594 H         1 <0>         0.0518
     30 H6         -0.7977   -0.3897   -0.2380 H         1 <0>         0.0746
     31 H7          0.8071   -0.6594   -0.9594 H         1 <0>         0.0853
     32 H8          0.5569   -0.0516    3.1745 H         1 <0>         0.0723
     33 H9         -0.7612    0.5951    2.1681 H         1 <0>         0.0801
     34 H10        -1.3546   -1.7642    1.5254 H         1 <0>         0.0699
     35 H11        -0.1205   -2.3452    2.6689 H         1 <0>         0.0585
     36 H12        -1.5355   -1.4463    3.2674 H         1 <0>         0.0674
     37 H13         2.2052   -0.3067    3.3625 H         1 <0>         0.0987
     38 H14         2.8934   -3.5063    1.0924 H         1 <0>         0.0773
     39 H15         4.3117   -2.9024    2.0112 H         1 <0>         0.1064
     40 H16         2.4345   -5.2254    2.7151 H         1 <0>         0.0667
     41 H17         2.7282   -4.8113    4.9965 H         1 <0>         0.0692
     42 H18         4.3579   -4.1196    4.7581 H         1 <0>         0.0909
     43 H19         3.6381   -2.2574    6.5103 H         1 <0>         0.4387
     44 H20         2.9013   -2.0567    8.0069 H         1 <0>         0.4346
     45 H21        -0.3960   -2.5843    6.8479 H         1 <0>         0.4353
     46 H22         0.5361   -2.2484    8.2048 H         1 <0>         0.4354
     47 H23         4.5312   -0.2117    3.3357 H         1 <0>         0.3999
     48 H24         6.8135   -1.9222    2.1846 H         1 <0>         0.0966
     49 H25         6.7813   -1.0021    0.6612 H         1 <0>         0.0942
     50 H26         6.6398   -0.1511    2.2181 H         1 <0>         0.0718
     51 H27         0.6531   -2.8555    4.7968 H         1 <0>         0.4331
@<TRIPOS>BOND
     1    1    2 1
     2    1   27 1
     3    1   28 1
     4    1   29 1
     5    2    3 1
     6    2   30 1
     7    2   31 1
     8    3    4 1
     9    3    6 am
    10    4    5 1
    11    4   32 1
    12    4   33 1
    13    5   34 1
    14    5   35 1
    15    5   36 1
    16    6    7 2
    17    6    8 1
    18    8    9 1
    19    8   23 1
    20    8   37 1
    21    9   10 1
    22    9   14 1
    23    9   11 1
    24   11   12 1
    25   11   38 1
    26   11   39 1
    27   12   13 1
    28   12   20 1
    29   12   40 1
    30   13   14 1
    31   13   41 1
    32   13   42 1
    33   14   15 1
    34   14   16 1
    35   16   17 2
    36   16   51 1
    37   17   18 1
    38   17   19 1
    39   18   43 1
    40   18   44 1
    41   19   45 1
    42   19   46 1
    43   20   21 2
    44   20   22 1
    45   23   24 am
    46   23   47 1
    47   24   25 2
    48   24   26 1
    49   26   48 1
    50   26   49 1
    51   26   50 1
@<TRIPOS>MOLECULE
CHEMBL301435__3
   51    51     0     0     0
SMALL
USER_CHARGES

@<TRIPOS>ATOM
      1 C1         -1.1632    0.3331   -0.2294 C.3       1 <0>        -0.1653
      2 C2         -0.4399   -0.9673    0.1262 C.3       1 <0>         0.1127
      3 N1          0.4026   -0.7509    1.3050 N.am      1 <0>        -0.6164
      4 C3         -0.1428   -0.9748    2.6462 C.3       1 <0>         0.0992
      5 C4         -0.4610   -2.4605    2.8258 C.3       1 <0>        -0.1944
      6 C5          1.6793   -0.3458    1.1557 C.2       1 <0>         0.5061
      7 O1          2.1009   -0.0629    0.0543 O.2       1 <0>        -0.4784
      8 C6          2.5831   -0.2445    2.3574 C.3       1 <0>         0.1375
      9 C7          2.6879   -1.6129    3.0336 C.3       1 <0>        -0.1164
     10 H1          1.7407   -2.1453    2.9471 H         1 <0>         0.1067
     11 C8          3.8160   -2.4355    2.3869 C.3       1 <0>        -0.1336
     12 C9          4.8388   -2.7343    3.5024 C.3       1 <0>        -0.1506
     13 C10         4.0162   -2.6274    4.8105 C.3       1 <0>        -0.1113
     14 C11         3.0632   -1.4404    4.5200 C.3       1 <0>         0.1088
     15 H2          3.5769   -0.4919    4.6761 H         1 <0>         0.1095
     16 N2          1.8682   -1.5227    5.3634 N.pl3     1 <0>        -0.6467
     17 C12         1.8538   -0.9441    6.5314 C.cat     1 <0>         0.7356
     18 N3          2.9600   -0.2567    6.9717 N.pl3     1 <0>        -0.8131
     19 N4          0.7323   -1.0213    7.3229 N.pl3     1 <0>        -0.8194
     20 C13         5.4004   -4.1238    3.3447 C.2       1 <0>         0.4961
     21 O2          6.5852   -4.3290    3.5463 O.co2     1 <0>        -0.6915
     22 O3          4.6700   -5.0428    3.0154 O.co2     1 <0>        -0.6875
     23 N5          3.9148    0.1929    1.9313 N.am      1 <0>        -0.7279
     24 C14         4.4568   -0.3016    0.8007 C.2       1 <0>         0.5173
     25 O4          3.8449   -1.1135    0.1396 O.2       1 <0>        -0.4850
     26 C15         5.8233    0.1544    0.3582 C.3       1 <0>        -0.1728
     27 H3         -0.4294    1.1098   -0.4449 H         1 <0>         0.0587
     28 H4         -1.7900    0.1721   -1.1065 H         1 <0>         0.0672
     29 H5         -1.7855    0.6439    0.6098 H         1 <0>         0.0517
     30 H6         -1.1736   -1.7440    0.3416 H         1 <0>         0.0773
     31 H7          0.1825   -1.2781   -0.7130 H         1 <0>         0.0869
     32 H8          0.5899   -0.6673    3.3923 H         1 <0>         0.0677
     33 H9         -1.0545   -0.3904    2.7699 H         1 <0>         0.0762
     34 H10        -1.1154   -2.7920    2.0196 H         1 <0>         0.0767
     35 H11         0.4645   -3.0358    2.8023 H         1 <0>         0.0726
     36 H12        -0.9588   -2.6122    3.7836 H         1 <0>         0.0677
     37 H13         2.1714    0.4784    3.0617 H         1 <0>         0.1014
     38 H14         3.4165   -3.3676    1.9872 H         1 <0>         0.0844
     39 H15         4.2889   -1.8598    1.5912 H         1 <0>         0.1097
     40 H16         5.6396   -1.9949    3.4938 H         1 <0>         0.0687
     41 H17         3.4503   -3.5421    4.9868 H         1 <0>         0.0865
     42 H18         4.6648   -2.4038    5.6575 H         1 <0>         0.0732
     43 H19         3.7512   -0.2023    6.4132 H         1 <0>         0.4380
     44 H20         2.9492    0.1738    7.8408 H         1 <0>         0.4351
     45 H21        -0.0482   -1.5063    7.0122 H         1 <0>         0.4359
     46 H22         0.7216   -0.5908    8.1920 H         1 <0>         0.4361
     47 H23         4.4064    0.8384    2.4629 H         1 <0>         0.4039
     48 H24         6.5818   -0.4981    0.7907 H         1 <0>         0.0985
     49 H25         5.8856    0.1130   -0.7292 H         1 <0>         0.0955
     50 H26         5.9909    1.1781    0.6930 H         1 <0>         0.0771
     51 H27         1.0877   -2.0077    5.0528 H         1 <0>         0.4337
@<TRIPOS>BOND
     1    1    2 1
     2    1   27 1
     3    1   28 1
     4    1   29 1
     5    2    3 1
     6    2   30 1
     7    2   31 1
     8    3    4 1
     9    3    6 am
    10    4    5 1
    11    4   32 1
    12    4   33 1
    13    5   34 1
    14    5   35 1
    15    5   36 1
    16    6    7 2
    17    6    8 1
    18    8    9 1
    19    8   23 1
    20    8   37 1
    21    9   10 1
    22    9   14 1
    23    9   11 1
    24   11   12 1
    25   11   38 1
    26   11   39 1
    27   12   13 1
    28   12   20 1
    29   12   40 1
    30   13   14 1
    31   13   41 1
    32   13   42 1
    33   14   15 1
    34   14   16 1
    35   16   17 2
    36   16   51 1
    37   17   18 1
    38   17   19 1
    39   18   43 1
    40   18   44 1
    41   19   45 1
    42   19   46 1
    43   20   21 2
    44   20   22 1
    45   23   24 am
    46   23   47 1
    47   24   25 2
    48   24   26 1
    49   26   48 1
    50   26   49 1
    51   26   50 1
@<TRIPOS>MOLECULE
CHEMBL253410
   47    47     0     0     0
SMALL
USER_CHARGES

@<TRIPOS>ATOM
      1 C1         -0.9288    1.4012   -0.4831 C.3       1 <0>        -0.1538
      2 C2         -0.6583   -0.0995   -0.3591 C.3       1 <0>        -0.1221
      3 C3          0.2589   -0.5482   -1.4985 C.3       1 <0>        -0.1432
      4 C4          0.5294   -2.0490   -1.3746 C.3       1 <0>         0.0729
      5 H1         -0.4177   -2.5874   -1.3415 H         1 <0>         0.1347
      6 C5          1.3429   -2.5219   -2.5810 C.3       1 <0>         0.1092
      7 H2          2.3334   -2.0679   -2.5519 H         1 <0>         0.1079
      8 C6          1.4788   -4.0453   -2.5390 C.3       1 <0>         0.0132
      9 H3          0.4909   -4.5048   -2.5069 H         1 <0>         0.1515
     10 C7          2.2469   -4.5384   -3.7834 C.3       1 <0>        -0.0689
     11 H4          2.8671   -3.7417   -4.1941 H         1 <0>         0.1048
     12 C8          3.1281   -5.6838   -3.2190 C.3       1 <0>        -0.1067
     13 C9          3.4837   -5.1410   -1.8124 C.3       1 <0>        -0.0498
     14 H5          4.3166   -4.4407   -1.8753 H         1 <0>         0.1306
     15 N1          2.2576   -4.4469   -1.3532 N.4       1 <0>        -0.4831
     16 C10         3.8236   -6.2769   -0.8822 C.2       1 <0>         0.4942
     17 O1          4.8688   -6.8885   -1.0234 O.co2     1 <0>        -0.6365
     18 O2          3.0534   -6.5842    0.0116 O.co2     1 <0>        -0.6668
     19 C11         1.2926   -5.0598   -4.8266 C.2       1 <0>        -0.1556
     20 C12         1.2548   -4.5078   -6.0140 C.2       1 <0>        -0.1419
     21 C13         2.1655   -3.3513   -6.3367 C.3       1 <0>        -0.1344
     22 N2          0.6605   -2.1264   -3.8156 N.am      1 <0>        -0.7161
     23 C14        -0.5862   -2.5716   -4.0688 C.2       1 <0>         0.5223
     24 O3         -1.1430   -3.2996   -3.2746 O.2       1 <0>        -0.5312
     25 C15        -1.2881   -2.1647   -5.3387 C.3       1 <0>        -0.1770
     26 O4          1.2641   -2.3032   -0.1755 O.3       1 <0>        -0.5549
     27 H6          0.0136    1.9461   -0.4269 H         1 <0>         0.0537
     28 H7         -1.4104    1.6059   -1.4392 H         1 <0>         0.0526
     29 H8         -1.5822    1.7209    0.3287 H         1 <0>         0.0579
     30 H9         -0.1767   -0.3042    0.5970 H         1 <0>         0.0707
     31 H10        -1.6006   -0.6444   -0.4153 H         1 <0>         0.0634
     32 H11        -0.2227   -0.3436   -2.4547 H         1 <0>         0.0765
     33 H12         1.2013   -0.0033   -1.4424 H         1 <0>         0.0686
     34 H13         2.5622   -6.6127   -3.1475 H         1 <0>         0.0938
     35 H14         4.0250   -5.8203   -3.8231 H         1 <0>         0.1105
     36 H15         2.5093   -3.6287   -0.8192 H         1 <0>         0.4105
     37 H16         0.6400   -5.8887   -4.5954 H         1 <0>         0.1185
     38 H17         0.5709   -4.8815   -6.7617 H         1 <0>         0.1171
     39 H18         1.9594   -2.5256   -5.6557 H         1 <0>         0.0615
     40 H19         3.2036   -3.6641   -6.2248 H         1 <0>         0.0705
     41 H20         1.9922   -3.0278   -7.3631 H         1 <0>         0.0668
     42 H21         1.1059   -1.5441   -4.4507 H         1 <0>         0.4119
     43 H22        -1.0669   -2.8877   -6.1238 H         1 <0>         0.1002
     44 H23        -2.3639   -2.1342   -5.1654 H         1 <0>         0.0988
     45 H24        -0.9414   -1.1778   -5.6453 H         1 <0>         0.0829
     46 H25         2.1199   -1.8548   -0.1361 H         1 <0>         0.3791
     47 H26         1.7072   -5.0689   -0.7802 H         1 <0>         0.4350
@<TRIPOS>BOND
     1    1    2 1
     2    1   27 1
     3    1   28 1
     4    1   29 1
     5    2    3 1
     6    2   30 1
     7    2   31 1
     8    3    4 1
     9    3   32 1
    10    3   33 1
    11    4    5 1
    12    4    6 1
    13    4   26 1
    14    6    7 1
    15    6    8 1
    16    6   22 1
    17    8    9 1
    18    8   15 1
    19    8   10 1
    20   10   11 1
    21   10   12 1
    22   10   19 1
    23   12   13 1
    24   12   34 1
    25   12   35 1
    26   13   14 1
    27   13   15 1
    28   13   16 1
    29   15   36 1
    30   15   47 1
    31   16   17 2
    32   16   18 1
    33   19   20 2
    34   19   37 1
    35   20   21 1
    36   20   38 1
    37   21   39 1
    38   21   40 1
    39   21   41 1
    40   22   23 am
    41   22   42 1
    42   23   24 2
    43   23   25 1
    44   25   43 1
    45   25   44 1
    46   25   45 1
    47   26   46 1
@<TRIPOS>MOLECULE
CHEMBL253625
   45    45     0     0     0
SMALL
USER_CHARGES

@<TRIPOS>ATOM
      1 C1          0.0048    1.4941   -0.0193 C.3       1 <0>        -0.1341
      2 C2          0.0279   -0.0126   -0.0374 C.2       1 <0>        -0.1428
      3 C3         -1.0962   -0.6851   -0.0224 C.2       1 <0>        -0.1550
      4 C4         -2.4124    0.0480    0.0130 C.3       1 <0>        -0.0693
      5 H1         -2.2512    1.1258    0.0349 H         1 <0>         0.1052
      6 C5         -3.2598   -0.4046    1.2312 C.3       1 <0>        -0.1062
      7 C6         -4.6988   -0.1140    0.7367 C.3       1 <0>        -0.0510
      8 H2         -4.9417    0.9397    0.8742 H         1 <0>         0.1308
      9 N1         -4.6796   -0.4543   -0.7019 N.4       1 <0>        -0.4826
     10 C7         -3.2902   -0.3481   -1.1928 C.3       1 <0>         0.0156
     11 H3         -2.9633   -1.3092   -1.5896 H         1 <0>         0.1518
     12 C8         -3.1978    0.7256   -2.2789 C.3       1 <0>         0.1094
     13 H4         -3.6369    1.6530   -1.9112 H         1 <0>         0.1081
     14 C9         -3.9574    0.2596   -3.5226 C.3       1 <0>         0.0793
     15 H5         -3.5846   -0.7170   -3.8313 H         1 <0>         0.1355
     16 C10        -3.7481    1.2667   -4.6551 C.3       1 <0>        -0.1166
     17 C11        -4.3932    0.7479   -5.9144 C.2       1 <0>        -0.1543
     18 C12        -5.2741    1.4810   -6.5490 C.2       1 <0>        -0.1817
     19 O1         -5.3511    0.1641   -3.2216 O.3       1 <0>        -0.5526
     20 N2         -1.7919    0.9532   -2.6221 N.am      1 <0>        -0.7173
     21 C13        -1.0425   -0.0595   -3.1008 C.2       1 <0>         0.5225
     22 O2         -1.5321   -1.1594   -3.2475 O.2       1 <0>        -0.5302
     23 C14         0.4037    0.1747   -3.4539 C.3       1 <0>        -0.1775
     24 C15        -5.6905   -0.9800    1.4699 C.2       1 <0>         0.4944
     25 O3         -5.9393   -0.7623    2.6434 O.co2     1 <0>        -0.6360
     26 O4         -6.2439   -1.8984    0.8896 O.co2     1 <0>        -0.6665
     27 H6          1.0266    1.8734   -0.0357 H         1 <0>         0.0668
     28 H7         -0.5325    1.8598   -0.8943 H         1 <0>         0.0616
     29 H8         -0.4962    1.8390    0.8852 H         1 <0>         0.0703
     30 H9          0.9711   -0.5380   -0.0628 H         1 <0>         0.1172
     31 H10        -1.0797   -1.7649   -0.0353 H         1 <0>         0.1187
     32 H11        -3.1222   -1.4676    1.4292 H         1 <0>         0.0940
     33 H12        -3.0229    0.1892    2.1140 H         1 <0>         0.1106
     34 H13        -5.0167   -1.3963   -0.8325 H         1 <0>         0.4358
     35 H14        -4.2000    2.2202   -4.3816 H         1 <0>         0.0729
     36 H15        -2.6804    1.4061   -4.8248 H         1 <0>         0.0856
     37 H16        -4.1294   -0.2283   -6.2936 H         1 <0>         0.1104
     38 H17        -5.7365    1.1091   -7.4514 H         1 <0>         0.1004
     39 H18        -5.5380    2.4572   -6.1698 H         1 <0>         0.0953
     40 H19        -5.7505    0.9982   -2.9391 H         1 <0>         0.3770
     41 H20        -1.4003    1.8329   -2.5048 H         1 <0>         0.4121
     42 H21         1.0268   -0.0188   -2.5807 H         1 <0>         0.1004
     43 H22         0.6934   -0.4960   -4.2628 H         1 <0>         0.0989
     44 H23         0.5369    1.2082   -3.7735 H         1 <0>         0.0830
     45 H24        -5.2671    0.1889   -1.2109 H         1 <0>         0.4099
@<TRIPOS>BOND
     1    1    2 1
     2    1   27 1
     3    1   28 1
     4    1   29 1
     5    2    3 2
     6    2   30 1
     7    3    4 1
     8    3   31 1
     9    4    5 1
    10    4   10 1
    11    4    6 1
    12    6    7 1
    13    6   32 1
    14    6   33 1
    15    7    8 1
    16    7    9 1
    17    7   24 1
    18    9   10 1
    19    9   34 1
    20    9   45 1
    21   10   11 1
    22   10   12 1
    23   12   13 1
    24   12   14 1
    25   12   20 1
    26   14   15 1
    27   14   16 1
    28   14   19 1
    29   16   17 1
    30   16   35 1
    31   16   36 1
    32   17   18 2
    33   17   37 1
    34   18   38 1
    35   18   39 1
    36   19   40 1
    37   20   21 am
    38   20   41 1
    39   21   22 2
    40   21   23 1
    41   23   42 1
    42   23   43 1
    43   23   44 1
    44   24   25 2
    45   24   26 1
@<TRIPOS>MOLECULE
CHEMBL253839
   44    44     0     0     0
SMALL
USER_CHARGES

@<TRIPOS>ATOM
      1 C1         -0.1181    1.5259   -0.6544 C.3       1 <0>        -0.1519
      2 C2         -0.0549    0.0081   -0.4725 C.3       1 <0>        -0.1469
      3 C3         -1.4571   -0.5293   -0.1796 C.3       1 <0>         0.0728
      4 H1         -2.1393   -0.2143   -0.9692 H         1 <0>         0.1347
      5 C4         -1.4157   -2.0577   -0.1212 C.3       1 <0>         0.1089
      6 H2         -0.8232   -2.3725    0.7378 H         1 <0>         0.1080
      7 C5         -2.8393   -2.6017    0.0141 C.3       1 <0>         0.0132
      8 H3         -3.4539   -2.2408   -0.8106 H         1 <0>         0.1515
      9 C6         -2.8139   -4.1446    0.0140 C.3       1 <0>        -0.0689
     10 H4         -1.8375   -4.5140    0.3274 H         1 <0>         0.1049
     11 C7         -3.9006   -4.5121    1.0584 C.3       1 <0>        -0.1067
     12 C8         -3.7293   -3.3787    2.1003 C.3       1 <0>        -0.0498
     13 H5         -2.9061   -3.6068    2.7773 H         1 <0>         0.1307
     14 N1         -3.4208   -2.1711    1.2988 N.4       1 <0>        -0.4831
     15 C9         -5.0061   -3.1818    2.8761 C.2       1 <0>         0.4942
     16 O1         -5.3595   -4.0173    3.6906 O.co2     1 <0>        -0.6365
     17 O2         -5.6858   -2.1870    2.6892 O.co2     1 <0>        -0.6668
     18 C10        -3.1735   -4.6833   -1.3467 C.2       1 <0>        -0.1557
     19 C11        -2.3205   -5.4315   -2.0014 C.2       1 <0>        -0.1419
     20 C12        -0.9795   -5.7536   -1.3939 C.3       1 <0>        -0.1344
     21 N2         -0.8091   -2.5770   -1.3495 N.am      1 <0>        -0.7162
     22 C13        -1.3739   -2.3120   -2.5442 C.2       1 <0>         0.5221
     23 O3         -2.3842   -1.6436   -2.6024 O.2       1 <0>        -0.5313
     24 C14        -0.7500   -2.8462   -3.8076 C.3       1 <0>        -0.1770
     25 O4         -1.9112   -0.0169    1.0747 O.3       1 <0>        -0.5549
     26 H6          0.8809    1.9087   -0.8631 H         1 <0>         0.0582
     27 H7         -0.7800    1.7648   -1.4868 H         1 <0>         0.0570
     28 H8         -0.5002    1.9854    0.2571 H         1 <0>         0.0639
     29 H9          0.3273   -0.4515   -1.3841 H         1 <0>         0.0758
     30 H10         0.6071   -0.2309    0.3599 H         1 <0>         0.0683
     31 H11        -4.8951   -4.4859    0.6129 H         1 <0>         0.0939
     32 H12        -3.6999   -5.4862    1.5045 H         1 <0>         0.1106
     33 H13        -2.7585   -1.5934    1.7947 H         1 <0>         0.4105
     34 H14        -4.1346   -4.4525   -1.7822 H         1 <0>         0.1186
     35 H15        -2.5782   -5.8176   -2.9766 H         1 <0>         0.1171
     36 H16        -0.4115   -6.3822   -2.0796 H         1 <0>         0.0669
     37 H17        -0.4322   -4.8289   -1.2105 H         1 <0>         0.0615
     38 H18        -1.1250   -6.2825   -0.4520 H         1 <0>         0.0705
     39 H19        -0.0011   -3.1116   -1.3029 H         1 <0>         0.4120
     40 H20        -1.1681   -3.8274   -4.0326 H         1 <0>         0.1002
     41 H21        -0.9586   -2.1646   -4.6322 H         1 <0>         0.0989
     42 H22         0.3281   -2.9330   -3.6720 H         1 <0>         0.0830
     43 H23        -1.3505   -0.2587    1.8246 H         1 <0>         0.3792
     44 H24        -4.2667   -1.6476    1.1302 H         1 <0>         0.4350
@<TRIPOS>BOND
     1    1    2 1
     2    1   26 1
     3    1   27 1
     4    1   28 1
     5    2    3 1
     6    2   29 1
     7    2   30 1
     8    3    4 1
     9    3    5 1
    10    3   25 1
    11    5    6 1
    12    5    7 1
    13    5   21 1
    14    7    8 1
    15    7   14 1
    16    7    9 1
    17    9   10 1
    18    9   11 1
    19    9   18 1
    20   11   12 1
    21   11   31 1
    22   11   32 1
    23   12   13 1
    24   12   14 1
    25   12   15 1
    26   14   33 1
    27   14   44 1
    28   15   16 2
    29   15   17 1
    30   18   19 2
    31   18   34 1
    32   19   20 1
    33   19   35 1
    34   20   36 1
    35   20   37 1
    36   20   38 1
    37   21   22 am
    38   21   39 1
    39   22   23 2
    40   22   24 1
    41   24   40 1
    42   24   41 1
    43   24   42 1
    44   25   43 1
@<TRIPOS>MOLECULE
CHEMBL399060
   42    42     0     0     0
SMALL
USER_CHARGES

@<TRIPOS>ATOM
      1 C1          0.0043    1.4956   -0.0191 C.3       1 <0>        -0.1349
      2 C2          0.0284   -0.0111   -0.0376 C.2       1 <0>        -0.1425
      3 C3         -1.0953   -0.6843   -0.0228 C.2       1 <0>        -0.1548
      4 C4         -2.4120    0.0479    0.0129 C.3       1 <0>        -0.0689
      5 H1         -2.2515    1.1258    0.0350 H         1 <0>         0.1053
      6 C5         -3.2591   -0.4056    1.2309 C.3       1 <0>        -0.1062
      7 C6         -4.6982   -0.1158    0.7365 C.3       1 <0>        -0.0509
      8 H2         -4.9418    0.9376    0.8742 H         1 <0>         0.1311
      9 N1         -4.6788   -0.4558   -0.7022 N.4       1 <0>        -0.4829
     10 C7         -3.2895   -0.3485   -1.1931 C.3       1 <0>         0.0147
     11 H3         -2.9619   -1.3092   -1.5902 H         1 <0>         0.1518
     12 C8         -3.1978    0.7256   -2.2789 C.3       1 <0>         0.1141
     13 H4         -3.6373    1.6527   -1.9109 H         1 <0>         0.1084
     14 C9         -3.9574    0.2596   -3.5226 C.3       1 <0>         0.1061
     15 H5         -3.5846   -0.7170   -3.8313 H         1 <0>         0.1354
     16 C10        -3.7512    1.2516   -4.6381 C.2       1 <0>        -0.2013
     17 C11        -3.1952    0.8686   -5.7607 C.2       1 <0>        -0.1453
     18 O1         -5.3511    0.1641   -3.2216 O.3       1 <0>        -0.5526
     19 N2         -1.7921    0.9540   -2.6223 N.am      1 <0>        -0.7139
     20 C12        -1.0423   -0.0583   -3.1015 C.2       1 <0>         0.5244
     21 O2         -1.5314   -1.1583   -3.2484 O.2       1 <0>        -0.5330
     22 C13         0.4037    0.1768   -3.4547 C.3       1 <0>        -0.1796
     23 C14        -5.6893   -0.9827    1.4694 C.2       1 <0>         0.4943
     24 O3         -5.9383   -0.7655    2.6430 O.co2     1 <0>        -0.6359
     25 O4         -6.2422   -1.9013    0.8889 O.co2     1 <0>        -0.6666
     26 H6          1.0259    1.8755   -0.0354 H         1 <0>         0.0668
     27 H7         -0.5333    1.8612   -0.8940 H         1 <0>         0.0618
     28 H8         -0.4970    1.8399    0.8855 H         1 <0>         0.0707
     29 H9          0.9720   -0.5358   -0.0631 H         1 <0>         0.1174
     30 H10        -1.0781   -1.7641   -0.0360 H         1 <0>         0.1187
     31 H11        -3.1208   -1.4686    1.4286 H         1 <0>         0.0941
     32 H12        -3.0225    0.1881    2.1138 H         1 <0>         0.1108
     33 H13        -5.0153   -1.3980   -0.8331 H         1 <0>         0.4358
     34 H14        -4.0619    2.2782   -4.5121 H         1 <0>         0.1160
     35 H15        -3.0474    1.5796   -6.5602 H         1 <0>         0.1060
     36 H16        -2.8845   -0.1580   -5.8868 H         1 <0>         0.1017
     37 H17        -5.7505    0.9982   -2.9391 H         1 <0>         0.3792
     38 H18        -1.4009    1.8339   -2.5048 H         1 <0>         0.4118
     39 H19         0.9449    0.5087   -2.5687 H         1 <0>         0.0937
     40 H20         0.8432   -0.7504   -3.8227 H         1 <0>         0.0977
     41 H21         0.4690    0.9419   -4.2282 H         1 <0>         0.0916
     42 H22        -5.2668    0.1873   -1.2110 H         1 <0>         0.4098
@<TRIPOS>BOND
     1    1    2 1
     2    1   26 1
     3    1   27 1
     4    1   28 1
     5    2    3 2
     6    2   29 1
     7    3    4 1
     8    3   30 1
     9    4    5 1
    10    4   10 1
    11    4    6 1
    12    6    7 1
    13    6   31 1
    14    6   32 1
    15    7    8 1
    16    7    9 1
    17    7   23 1
    18    9   10 1
    19    9   33 1
    20    9   42 1
    21   10   11 1
    22   10   12 1
    23   12   13 1
    24   12   14 1
    25   12   19 1
    26   14   15 1
    27   14   16 1
    28   14   18 1
    29   16   17 2
    30   16   34 1
    31   17   35 1
    32   17   36 1
    33   18   37 1
    34   19   20 am
    35   19   38 1
    36   20   21 2
    37   20   22 1
    38   22   39 1
    39   22   40 1
    40   22   41 1
    41   23   24 2
    42   23   25 1
@<TRIPOS>MOLECULE
CHEMBL441790
   49    50     0     0     0
SMALL
USER_CHARGES

@<TRIPOS>ATOM
      1 C1          0.4915    1.4091   -2.5706 C.3       1 <0>        -0.1747
      2 C2          0.6073   -0.0780   -2.3559 C.2       1 <0>         0.5160
      3 O1          1.3420   -0.7371   -3.0607 O.2       1 <0>        -0.5443
      4 N1         -0.1055   -0.6756   -1.3805 N.am      1 <0>        -0.7147
      5 C3         -0.0727   -2.1332   -1.2374 C.3       1 <0>         0.1396
      6 C4         -1.3700   -2.6106   -0.5818 C.3       1 <0>        -0.1046
      7 H1         -1.3557   -3.6929   -0.4535 H         1 <0>         0.1053
      8 C5         -1.5796   -1.9059    0.7815 C.3       1 <0>        -0.0863
      9 C6         -3.1115   -2.0075    0.9869 C.3       1 <0>        -0.1575
     10 C7         -3.6972   -1.7962   -0.4246 C.3       1 <0>        -0.1135
     11 C8         -2.5897   -2.1827   -1.4238 C.3       1 <0>         0.1116
     12 H2         -2.3321   -1.3250   -2.0451 H         1 <0>         0.1090
     13 N2         -3.0347   -3.2968   -2.2647 N.pl3     1 <0>        -0.6447
     14 C9         -3.6888   -3.0604   -3.3671 C.cat     1 <0>         0.7375
     15 N3         -3.9610   -1.7657   -3.7407 N.pl3     1 <0>        -0.8118
     16 N4         -4.1064   -4.1059   -4.1562 N.pl3     1 <0>        -0.8193
     17 C10        -3.5907   -0.9288    1.9237 C.2       1 <0>         0.4949
     18 O2         -4.7178   -0.4783    1.8090 O.co2     1 <0>        -0.6931
     19 O3         -2.8514   -0.5067    2.7964 O.co2     1 <0>        -0.6804
     20 C11         1.0998   -2.5271   -0.3765 C.2       1 <0>         0.5216
     21 O4          1.6128   -1.7112    0.3597 O.2       1 <0>        -0.5101
     22 N5          1.5783   -3.7862   -0.4247 N.am      1 <0>        -0.6191
     23 C12         1.0582   -4.8686   -1.2728 C.3       1 <0>         0.0976
     24 C13         1.8971   -6.1288   -0.9732 C.3       1 <0>        -0.1325
     25 C14         2.4742   -5.8350    0.4368 C.3       1 <0>        -0.1340
     26 C15         2.7141   -4.3043    0.3595 C.3       1 <0>         0.1030
     27 H3         -0.3089    1.6122   -3.2822 H         1 <0>         0.0952
     28 H4          0.2667    1.8968   -1.6221 H         1 <0>         0.0881
     29 H5          1.4328    1.7940   -2.9630 H         1 <0>         0.0975
     30 H6         -0.6402   -0.1405   -0.7734 H         1 <0>         0.4141
     31 H7          0.0280   -2.5927   -2.2207 H         1 <0>         0.1069
     32 H8         -1.0479   -2.4323    1.5742 H         1 <0>         0.0821
     33 H9         -1.2651   -0.8636    0.7300 H         1 <0>         0.0814
     34 H10        -3.3808   -2.9926    1.3681 H         1 <0>         0.0762
     35 H11        -4.5670   -2.4373   -0.5677 H         1 <0>         0.0747
     36 H12        -3.9765   -0.7514   -0.5603 H         1 <0>         0.0949
     37 H13        -3.6664   -1.0280   -3.1839 H         1 <0>         0.4382
     38 H14        -4.4478   -1.5898   -4.5611 H         1 <0>         0.4352
     39 H15        -3.9143   -5.0194   -3.8926 H         1 <0>         0.4358
     40 H16        -4.5931   -3.9300   -4.9766 H         1 <0>         0.4358
     41 H17         0.0110   -5.0553   -1.0349 H         1 <0>         0.0630
     42 H18         1.1591   -4.5973   -2.3237 H         1 <0>         0.0677
     43 H19         1.2655   -7.0170   -0.9540 H         1 <0>         0.0843
     44 H20         2.6993   -6.2404   -1.7027 H         1 <0>         0.0794
     45 H21         1.7510   -6.0818    1.2141 H         1 <0>         0.0793
     46 H22         3.4118   -6.3682    0.5941 H         1 <0>         0.0876
     47 H23         3.6546   -4.0905   -0.1482 H         1 <0>         0.0697
     48 H24         2.7144   -3.8699    1.3592 H         1 <0>         0.0827
     49 H25        -2.8426   -4.2103   -2.0010 H         1 <0>         0.4348
@<TRIPOS>BOND
     1    1    2 1
     2    1   27 1
     3    1   28 1
     4    1   29 1
     5    2    3 2
     6    2    4 am
     7    4    5 1
     8    4   30 1
     9    5    6 1
    10    5   20 1
    11    5   31 1
    12    6    7 1
    13    6   11 1
    14    6    8 1
    15    8    9 1
    16    8   32 1
    17    8   33 1
    18    9   10 1
    19    9   17 1
    20    9   34 1
    21   10   11 1
    22   10   35 1
    23   10   36 1
    24   11   12 1
    25   11   13 1
    26   13   14 2
    27   13   49 1
    28   14   15 1
    29   14   16 1
    30   15   37 1
    31   15   38 1
    32   16   39 1
    33   16   40 1
    34   17   18 2
    35   17   19 1
    36   20   21 2
    37   20   22 am
    38   22   26 1
    39   22   23 1
    40   23   24 1
    41   23   41 1
    42   23   42 1
    43   24   25 1
    44   24   43 1
    45   24   44 1
    46   25   26 1
    47   25   45 1
    48   25   46 1
    49   26   47 1
    50   26   48 1
@<TRIPOS>MOLECULE
CHEMBL441790__1
   49    50     0     0     0
SMALL
USER_CHARGES

@<TRIPOS>ATOM
      1 C1          0.5557    1.4552   -2.4084 C.3       1 <0>        -0.1743
      2 C2          0.6422   -0.0424   -2.2645 C.2       1 <0>         0.5155
      3 O1          1.3537   -0.6830   -3.0090 O.2       1 <0>        -0.5441
      4 N1         -0.0712   -0.6699   -1.3085 N.am      1 <0>        -0.7139
      5 C3         -0.0727   -2.1332   -1.2374 C.3       1 <0>         0.1377
      6 C4         -1.3700   -2.6106   -0.5818 C.3       1 <0>        -0.0954
      7 H1         -1.3485   -3.6932   -0.4568 H         1 <0>         0.1035
      8 C5         -1.5533   -1.9259    0.7840 C.3       1 <0>        -0.1120
      9 C6         -2.8689   -1.1245    0.7022 C.3       1 <0>        -0.1545
     10 C7         -3.6758   -1.8319   -0.4148 C.3       1 <0>        -0.1121
     11 C8         -2.5805   -2.2024   -1.4466 C.3       1 <0>         0.1107
     12 H2         -2.3332   -1.3405   -2.0663 H         1 <0>         0.1127
     13 N2         -3.0179   -3.3257   -2.2791 N.pl3     1 <0>        -0.6434
     14 C9         -3.6598   -3.1015   -3.3911 C.cat     1 <0>         0.7381
     15 N3         -3.9265   -1.8109   -3.7827 N.pl3     1 <0>        -0.8135
     16 N4         -4.0703   -4.1556   -4.1725 N.pl3     1 <0>        -0.8185
     17 C10        -3.6104   -1.1926    2.0123 C.2       1 <0>         0.4969
     18 O2         -4.1725   -0.2018    2.4469 O.co2     1 <0>        -0.6861
     19 O3         -3.6482   -2.2386    2.6377 O.co2     1 <0>        -0.6865
     20 C11         1.1044   -2.5975   -0.4188 C.2       1 <0>         0.5224
     21 O4          1.6505   -1.8316    0.3466 O.2       1 <0>        -0.5143
     22 N5          1.5500   -3.8639   -0.5374 N.am      1 <0>        -0.6178
     23 C12         0.9880   -4.8903   -1.4275 C.3       1 <0>         0.0971
     24 C13         1.7999   -6.1838   -1.2055 C.3       1 <0>        -0.1324
     25 C14         2.4088   -5.9739    0.2061 C.3       1 <0>        -0.1343
     26 C15         2.6858   -4.4476    0.1993 C.3       1 <0>         0.1030
     27 H3         -0.2489    1.7080   -3.0989 H         1 <0>         0.0956
     28 H4          0.3532    1.9026   -1.4352 H         1 <0>         0.0872
     29 H5          1.5001    1.8382   -2.7950 H         1 <0>         0.0974
     30 H6         -0.5836   -0.1527   -0.6676 H         1 <0>         0.4138
     31 H7         -0.0008   -2.5459   -2.2437 H         1 <0>         0.1066
     32 H8         -1.6216   -2.6763    1.5717 H         1 <0>         0.0979
     33 H9         -0.7180   -1.2535    0.9797 H         1 <0>         0.0770
     34 H10        -2.6681   -0.0883    0.4299 H         1 <0>         0.0746
     35 H11        -4.1630   -2.7282   -0.0309 H         1 <0>         0.0905
     36 H12        -4.4059   -1.1519   -0.8537 H         1 <0>         0.0773
     37 H13        -3.6369   -1.0671   -3.2315 H         1 <0>         0.4374
     38 H14        -4.4042   -1.6440   -4.6103 H         1 <0>         0.4352
     39 H15        -3.8822   -5.0662   -3.8962 H         1 <0>         0.4364
     40 H16        -4.5480   -3.9888   -5.0000 H         1 <0>         0.4359
     41 H17        -0.0593   -5.0629   -1.1795 H         1 <0>         0.0634
     42 H18         1.0774   -4.5700   -2.4655 H         1 <0>         0.0677
     43 H19         1.1466   -7.0561   -1.2179 H         1 <0>         0.0848
     44 H20         2.5862   -6.2788   -1.9544 H         1 <0>         0.0794
     45 H21         1.6933   -6.2410    0.9838 H         1 <0>         0.0803
     46 H22         3.3352   -6.5369    0.3197 H         1 <0>         0.0878
     47 H23         3.6225   -4.2320   -0.3149 H         1 <0>         0.0698
     48 H24         2.7145   -4.0631    1.2188 H         1 <0>         0.0827
     49 H25        -2.8297   -4.2363   -2.0028 H         1 <0>         0.4364
@<TRIPOS>BOND
     1    1    2 1
     2    1   27 1
     3    1   28 1
     4    1   29 1
     5    2    3 2
     6    2    4 am
     7    4    5 1
     8    4   30 1
     9    5    6 1
    10    5   20 1
    11    5   31 1
    12    6    7 1
    13    6   11 1
    14    6    8 1
    15    8    9 1
    16    8   32 1
    17    8   33 1
    18    9   10 1
    19    9   17 1
    20    9   34 1
    21   10   11 1
    22   10   35 1
    23   10   36 1
    24   11   12 1
    25   11   13 1
    26   13   14 2
    27   13   49 1
    28   14   15 1
    29   14   16 1
    30   15   37 1
    31   15   38 1
    32   16   39 1
    33   16   40 1
    34   17   18 2
    35   17   19 1
    36   20   21 2
    37   20   22 am
    38   22   26 1
    39   22   23 1
    40   23   24 1
    41   23   41 1
    42   23   42 1
    43   24   25 1
    44   24   43 1
    45   24   44 1
    46   25   26 1
    47   25   45 1
    48   25   46 1
    49   26   47 1
    50   26   48 1
@<TRIPOS>MOLECULE
CHEMBL441790__2
   49    50     0     0     0
SMALL
USER_CHARGES

@<TRIPOS>ATOM
      1 C1          1.0857    1.2829    0.1518 C.3       1 <0>        -0.1727
      2 C2          0.6952   -0.1708    0.0786 C.2       1 <0>         0.4977
      3 O1          0.6446   -0.8368    1.0910 O.2       1 <0>        -0.4913
      4 N1          0.4022   -0.7307   -1.1117 N.am      1 <0>        -0.7298
      5 C3          0.0225   -2.1439   -1.1829 C.3       1 <0>         0.1397
      6 C4          1.1635   -3.0064   -0.6395 C.3       1 <0>        -0.1062
      7 H1          1.2875   -2.8431    0.4310 H         1 <0>         0.1142
      8 C5          0.8976   -4.5040   -0.9322 C.3       1 <0>        -0.0897
      9 C6          2.3196   -5.1169   -0.8965 C.3       1 <0>        -0.1563
     10 C7          3.2110   -4.0432   -1.5541 C.3       1 <0>        -0.1130
     11 C8          2.4767   -2.6988   -1.3883 C.3       1 <0>         0.1198
     12 H2          2.2573   -2.2706   -2.3664 H         1 <0>         0.1036
     13 N2          3.2950   -1.7697   -0.6052 N.pl3     1 <0>        -0.6378
     14 C9          4.1673   -1.0070   -1.2024 C.cat     1 <0>         0.7323
     15 N3          4.3192   -1.0746   -2.5671 N.pl3     1 <0>        -0.8140
     16 N4          4.9353   -0.1351   -0.4675 N.pl3     1 <0>        -0.8220
     17 C10         2.3624   -6.3968   -1.6909 C.2       1 <0>         0.4969
     18 O2          3.3948   -6.7375   -2.2428 O.co2     1 <0>        -0.6932
     19 O3          1.3646   -7.0915   -1.7818 O.co2     1 <0>        -0.6838
     20 C11        -1.2174   -2.3731   -0.3576 C.2       1 <0>         0.5173
     21 O4         -1.3537   -1.8019    0.7036 O.2       1 <0>        -0.5035
     22 N5         -2.1748   -3.2128   -0.7988 N.am      1 <0>        -0.6153
     23 C12        -2.0930   -4.0466   -2.0070 C.3       1 <0>         0.0815
     24 C13        -3.4250   -4.8173   -2.1229 C.3       1 <0>        -0.1316
     25 C14        -4.4023   -3.9500   -1.2862 C.3       1 <0>        -0.1335
     26 C15        -3.4750   -3.4521   -0.1465 C.3       1 <0>         0.1064
     27 H3          2.1669    1.3744    0.0483 H         1 <0>         0.0813
     28 H4          0.5960    1.8316   -0.6527 H         1 <0>         0.0799
     29 H5          0.7766    1.6942    1.1128 H         1 <0>         0.0977
     30 H6          0.4426   -0.1980   -1.9214 H         1 <0>         0.4027
     31 H7         -0.1759   -2.4150   -2.2198 H         1 <0>         0.1109
     32 H8          0.2682   -4.9430   -0.1581 H         1 <0>         0.0788
     33 H9          0.4467   -4.6312   -1.9164 H         1 <0>         0.0820
     34 H10         2.6327   -5.2948    0.1323 H         1 <0>         0.0749
     35 H11         4.1781   -4.0026   -1.0529 H         1 <0>         0.0719
     36 H12         3.3474   -4.2679   -2.6120 H         1 <0>         0.0935
     37 H13         3.7774   -1.6897   -3.0856 H         1 <0>         0.4377
     38 H14         4.9683   -0.5070   -3.0115 H         1 <0>         0.4338
     39 H15         4.8280   -0.0875    0.4954 H         1 <0>         0.4358
     40 H16         5.5844    0.4324   -0.9119 H         1 <0>         0.4348
     41 H17        -1.9525   -3.4152   -2.8843 H         1 <0>         0.0657
     42 H18        -1.2647   -4.7493   -1.9170 H         1 <0>         0.0907
     43 H19        -3.7502   -4.8713   -3.1618 H         1 <0>         0.0845
     44 H20        -3.3316   -5.8153   -1.6945 H         1 <0>         0.0838
     45 H21        -4.7863   -3.1165   -1.8742 H         1 <0>         0.0745
     46 H22        -5.2178   -4.5539   -0.8883 H         1 <0>         0.0862
     47 H23        -3.3771   -4.2145    0.6264 H         1 <0>         0.0708
     48 H24        -3.8618   -2.5264    0.2796 H         1 <0>         0.0753
     49 H25         3.1878   -1.7220    0.3576 H         1 <0>         0.4374
@<TRIPOS>BOND
     1    1    2 1
     2    1   27 1
     3    1   28 1
     4    1   29 1
     5    2    3 2
     6    2    4 am
     7    4    5 1
     8    4   30 1
     9    5    6 1
    10    5   20 1
    11    5   31 1
    12    6    7 1
    13    6   11 1
    14    6    8 1
    15    8    9 1
    16    8   32 1
    17    8   33 1
    18    9   10 1
    19    9   17 1
    20    9   34 1
    21   10   11 1
    22   10   35 1
    23   10   36 1
    24   11   12 1
    25   11   13 1
    26   13   14 2
    27   13   49 1
    28   14   15 1
    29   14   16 1
    30   15   37 1
    31   15   38 1
    32   16   39 1
    33   16   40 1
    34   17   18 2
    35   17   19 1
    36   20   21 2
    37   20   22 am
    38   22   26 1
    39   22   23 1
    40   23   24 1
    41   23   41 1
    42   23   42 1
    43   24   25 1
    44   24   43 1
    45   24   44 1
    46   25   26 1
    47   25   45 1
    48   25   46 1
    49   26   47 1
    50   26   48 1
@<TRIPOS>MOLECULE
CHEMBL441790__3
   49    50     0     0     0
SMALL
USER_CHARGES

@<TRIPOS>ATOM
      1 C1          0.7694    1.2450    0.3122 C.3       1 <0>        -0.1719
      2 C2          0.5177   -0.2308    0.1398 C.2       1 <0>         0.4919
      3 O1          0.5142   -0.9624    1.1071 O.2       1 <0>        -0.4822
      4 N1          0.2966   -0.7377   -1.0892 N.am      1 <0>        -0.7316
      5 C3          0.0519   -2.1724   -1.2568 C.3       1 <0>         0.1406
      6 C4          1.2601   -2.9590   -0.7445 C.3       1 <0>        -0.1000
      7 H1          1.4442   -2.7198    0.3029 H         1 <0>         0.1159
      8 C5          1.0122   -4.4692   -0.9045 C.3       1 <0>        -0.1069
      9 C6          2.1159   -5.0000   -1.8425 C.3       1 <0>        -0.1534
     10 C7          3.2644   -3.9709   -1.6981 C.3       1 <0>        -0.1127
     11 C8          2.5061   -2.6238   -1.5900 C.3       1 <0>         0.1170
     12 H2          2.2125   -2.2711   -2.5787 H         1 <0>         0.1073
     13 N2          3.3321   -1.6222   -0.9112 N.pl3     1 <0>        -0.6363
     14 C9          4.1240   -0.8527   -1.6038 C.cat     1 <0>         0.7338
     15 N3          4.1841   -0.9810   -2.9713 N.pl3     1 <0>        -0.8158
     16 N4          4.8992    0.0872   -0.9668 N.pl3     1 <0>        -0.8212
     17 C10         2.5728   -6.3660   -1.3994 C.2       1 <0>         0.4957
     18 O2          2.8111   -7.2277   -2.2283 O.co2     1 <0>        -0.6891
     19 O3          2.7041   -6.6094   -0.2119 O.co2     1 <0>        -0.6851
     20 C11        -1.1736   -2.5678   -0.4740 C.2       1 <0>         0.5160
     21 O4         -1.2967   -2.2138    0.6795 O.2       1 <0>        -0.4941
     22 N5         -2.1329   -3.3147   -1.0557 N.am      1 <0>        -0.6194
     23 C12        -2.0696   -3.8893   -2.4075 C.3       1 <0>         0.0885
     24 C13        -3.3969   -4.6385   -2.6495 C.3       1 <0>        -0.1325
     25 C14        -4.3636   -3.9684   -1.6377 C.3       1 <0>        -0.1330
     26 C15        -3.4167   -3.6962   -0.4395 C.3       1 <0>         0.1053
     27 H3          1.8388    1.4423    0.2376 H         1 <0>         0.0836
     28 H4          0.2429    1.7967   -0.4666 H         1 <0>         0.0787
     29 H5          0.4086    1.5633    1.2902 H         1 <0>         0.0975
     30 H6          0.2994   -0.1526   -1.8629 H         1 <0>         0.4017
     31 H7         -0.1044   -2.3934   -2.3126 H         1 <0>         0.1073
     32 H8          1.0768   -4.9630    0.0650 H         1 <0>         0.0949
     33 H9          0.0311   -4.6417   -1.3472 H         1 <0>         0.0676
     34 H10         1.7590   -5.0314   -2.8720 H         1 <0>         0.0743
     35 H11         3.8426   -4.1616   -0.7940 H         1 <0>         0.0883
     36 H12         3.9070   -3.9831   -2.5785 H         1 <0>         0.0753
     37 H13         3.6372   -1.6442   -3.4207 H         1 <0>         0.4369
     38 H14         4.7735   -0.4084   -3.4867 H         1 <0>         0.4339
     39 H15         4.8567    0.1777   -0.0020 H         1 <0>         0.4360
     40 H16         5.4885    0.6598   -1.4822 H         1 <0>         0.4348
     41 H17        -1.9534   -3.0937   -3.1434 H         1 <0>         0.0667
     42 H18        -1.2334   -4.5852   -2.4757 H         1 <0>         0.0794
     43 H19        -3.7437   -4.4881   -3.6719 H         1 <0>         0.0847
     44 H20        -3.2856   -5.7006   -2.4312 H         1 <0>         0.0829
     45 H21        -4.7674   -3.0392   -2.0398 H         1 <0>         0.0750
     46 H22        -5.1652   -4.6500   -1.3530 H         1 <0>         0.0870
     47 H23        -3.2955   -4.5962    0.1633 H         1 <0>         0.0721
     48 H24        -3.8024   -2.8792    0.1703 H         1 <0>         0.0766
     49 H25         3.2896   -1.5317    0.0536 H         1 <0>         0.4379
@<TRIPOS>BOND
     1    1    2 1
     2    1   27 1
     3    1   28 1
     4    1   29 1
     5    2    3 2
     6    2    4 am
     7    4    5 1
     8    4   30 1
     9    5    6 1
    10    5   20 1
    11    5   31 1
    12    6    7 1
    13    6   11 1
    14    6    8 1
    15    8    9 1
    16    8   32 1
    17    8   33 1
    18    9   10 1
    19    9   17 1
    20    9   34 1
    21   10   11 1
    22   10   35 1
    23   10   36 1
    24   11   12 1
    25   11   13 1
    26   13   14 2
    27   13   49 1
    28   14   15 1
    29   14   16 1
    30   15   37 1
    31   15   38 1
    32   16   39 1
    33   16   40 1
    34   17   18 2
    35   17   19 1
    36   20   21 2
    37   20   22 am
    38   22   26 1
    39   22   23 1
    40   23   24 1
    41   23   41 1
    42   23   42 1
    43   24   25 1
    44   24   43 1
    45   24   44 1
    46   25   26 1
    47   25   45 1
    48   25   46 1
    49   26   47 1
    50   26   48 1
@<TRIPOS>MOLECULE
CHEMBL418456
   61    62     0     0     0
SMALL
USER_CHARGES

@<TRIPOS>ATOM
      1 C1         -0.0187    1.5258    0.0104 C.3       1 <0>        -0.1662
      2 C2          0.0021   -0.0041    0.0020 C.3       1 <0>         0.1468
      3 C3         -1.4333   -0.5336    0.0129 C.3       1 <0>        -0.1245
      4 C4         -1.4157   -2.0577   -0.1212 C.3       1 <0>        -0.0774
      5 C5         -2.8295   -2.5793   -0.1105 C.ar      1 <0>        -0.0836
      6 C6         -3.4324   -2.9175    1.0866 C.ar      1 <0>        -0.1161
      7 C7         -4.7292   -3.3959    1.0964 C.ar      1 <0>        -0.1166
      8 C8         -5.4233   -3.5358   -0.0908 C.ar      1 <0>        -0.1249
      9 C9         -4.8208   -3.1967   -1.2878 C.ar      1 <0>        -0.1189
     10 C10        -3.5254   -2.7142   -1.2973 C.ar      1 <0>        -0.1189
     11 N1          0.7106   -0.4894    1.1889 N.am      1 <0>        -0.7197
     12 C11         2.0538   -0.5998    1.1737 C.2       1 <0>         0.5071
     13 O1          2.6758   -0.2974    0.1774 O.2       1 <0>        -0.5104
     14 C12         2.7826   -1.0990    2.3946 C.3       1 <0>         0.1338
     15 C13         2.9260    0.0412    3.4047 C.3       1 <0>        -0.1086
     16 H1          3.4776    0.8721    2.9649 H         1 <0>         0.1146
     17 C14         1.5332    0.5123    3.8917 C.3       1 <0>        -0.0877
     18 C15         1.8519    1.1630    5.2607 C.3       1 <0>        -0.1554
     19 C16         2.9431    0.2559    5.8659 C.3       1 <0>        -0.1135
     20 C17         3.6292   -0.4565    4.6844 C.3       1 <0>         0.1183
     21 H2          3.5106   -1.5358    4.7800 H         1 <0>         0.1039
     22 N2          5.0519   -0.1092    4.6427 N.pl3     1 <0>        -0.6384
     23 C18         5.9141   -0.8101    5.3241 C.cat     1 <0>         0.7337
     24 N3          5.4884   -1.8752    6.0820 N.pl3     1 <0>        -0.8139
     25 N4          7.2491   -0.4842    5.2850 N.pl3     1 <0>        -0.8217
     26 C19         0.6269    1.1719    6.1383 C.2       1 <0>         0.4964
     27 O2          0.7448    1.1112    7.3503 O.co2     1 <0>        -0.6936
     28 O3         -0.4822    1.2399    5.6364 O.co2     1 <0>        -0.6835
     29 N5          4.1117   -1.5787    2.0077 N.am      1 <0>        -0.7258
     30 C20         4.9891   -0.7370    1.4262 C.2       1 <0>         0.5079
     31 O4          4.6783    0.4176    1.2232 O.2       1 <0>        -0.5054
     32 C21         6.3563   -1.2305    1.0283 C.3       1 <0>        -0.1716
     33 H3          1.0039    1.9031    0.0027 H         1 <0>         0.0606
     34 H4         -0.5459    1.8868   -0.8726 H         1 <0>         0.0648
     35 H5         -0.5289    1.8773    0.9072 H         1 <0>         0.0633
     36 H6          0.5123   -0.3556   -0.8948 H         1 <0>         0.0864
     37 H7         -1.9156   -0.2570    0.9504 H         1 <0>         0.0767
     38 H8         -1.9862   -0.1019   -0.8214 H         1 <0>         0.0817
     39 H9         -0.9334   -2.3344   -1.0587 H         1 <0>         0.0708
     40 H10        -0.8628   -2.4894    0.7131 H         1 <0>         0.0707
     41 H11        -2.8901   -2.8082    2.0141 H         1 <0>         0.1223
     42 H12        -5.2000   -3.6608    2.0316 H         1 <0>         0.1223
     43 H13        -6.4363   -3.9103   -0.0832 H         1 <0>         0.1205
     44 H14        -5.3630   -3.3063   -2.2154 H         1 <0>         0.1206
     45 H15        -3.0559   -2.4458   -2.2321 H         1 <0>         0.1197
     46 H16         0.2131   -0.7312    1.9857 H         1 <0>         0.4029
     47 H17         2.2188   -1.9155    2.8458 H         1 <0>         0.1135
     48 H18         1.1113    1.2455    3.2043 H         1 <0>         0.0824
     49 H19         0.8597   -0.3359    4.0146 H         1 <0>         0.0769
     50 H20         2.2309    2.1757    5.1227 H         1 <0>         0.0746
     51 H21         3.6706    0.8588    6.4094 H         1 <0>         0.0714
     52 H22         2.4910   -0.4770    6.5341 H         1 <0>         0.0932
     53 H23         4.5465   -2.1052    6.1096 H         1 <0>         0.4378
     54 H24         6.1301   -2.3968    6.5891 H         1 <0>         0.4339
     55 H25         7.5494    0.2674    4.7502 H         1 <0>         0.4354
     56 H26         7.8908   -1.0057    5.7921 H         1 <0>         0.4348
     57 H27         4.3603   -2.5022    2.1701 H         1 <0>         0.4021
     58 H28         6.4517   -2.2848    1.2877 H         1 <0>         0.0722
     59 H29         6.4883   -1.1073   -0.0466 H         1 <0>         0.0992
     60 H30         7.1177   -0.6561    1.5561 H         1 <0>         0.0873
     61 H31         5.3522    0.6423    4.1079 H         1 <0>         0.4362
@<TRIPOS>BOND
     1    1    2 1
     2    1   33 1
     3    1   34 1
     4    1   35 1
     5    2    3 1
     6    2   11 1
     7    2   36 1
     8    3    4 1
     9    3   37 1
    10    3   38 1
    11    4    5 1
    12    4   39 1
    13    4   40 1
    14    5   10 ar
    15    5    6 ar
    16    6    7 ar
    17    6   41 1
    18    7    8 ar
    19    7   42 1
    20    8    9 ar
    21    8   43 1
    22    9   10 ar
    23    9   44 1
    24   10   45 1
    25   11   12 am
    26   11   46 1
    27   12   13 2
    28   12   14 1
    29   14   15 1
    30   14   29 1
    31   14   47 1
    32   15   16 1
    33   15   20 1
    34   15   17 1
    35   17   18 1
    36   17   48 1
    37   17   49 1
    38   18   19 1
    39   18   26 1
    40   18   50 1
    41   19   20 1
    42   19   51 1
    43   19   52 1
    44   20   21 1
    45   20   22 1
    46   22   23 2
    47   22   61 1
    48   23   24 1
    49   23   25 1
    50   24   53 1
    51   24   54 1
    52   25   55 1
    53   25   56 1
    54   26   27 2
    55   26   28 1
    56   29   30 am
    57   29   57 1
    58   30   31 2
    59   30   32 1
    60   32   58 1
    61   32   59 1
    62   32   60 1
@<TRIPOS>MOLECULE
CHEMBL418456__1
   61    62     0     0     0
SMALL
USER_CHARGES

@<TRIPOS>ATOM
      1 C1          0.0464    1.5487   -0.0363 C.3       1 <0>        -0.1659
      2 C2          0.0756    0.0193   -0.0704 C.3       1 <0>         0.1448
      3 C3         -1.3566   -0.5172   -0.1148 C.3       1 <0>        -0.1238
      4 C4         -1.3265   -2.0385   -0.2744 C.3       1 <0>        -0.0777
      5 C5         -2.7372   -2.5670   -0.3181 C.ar      1 <0>        -0.0838
      6 C6         -3.3763   -2.9288    0.8530 C.ar      1 <0>        -0.1171
      7 C7         -4.6702   -3.4135    0.8130 C.ar      1 <0>        -0.1167
      8 C8         -5.3252   -3.5360   -0.3982 C.ar      1 <0>        -0.1246
      9 C9         -4.6865   -3.1734   -1.5692 C.ar      1 <0>        -0.1182
     10 C10        -3.3940   -2.6846   -1.5287 C.ar      1 <0>        -0.1185
     11 N1          0.7483   -0.4831    1.1300 N.am      1 <0>        -0.7208
     12 C11         2.0919   -0.5869    1.1561 C.2       1 <0>         0.5081
     13 O1          2.7374   -0.3553    0.1558 O.2       1 <0>        -0.5107
     14 C12         2.7919   -0.9906    2.4280 C.3       1 <0>         0.1321
     15 C13         2.8321    0.2001    3.3880 C.3       1 <0>        -0.0996
     16 H1          3.2519    1.0711    2.8848 H         1 <0>         0.1116
     17 C14         1.4142    0.5167    3.8948 C.3       1 <0>        -0.0995
     18 C15         1.4458    0.3466    5.4278 C.3       1 <0>        -0.1549
     19 C16         2.9362    0.5431    5.8010 C.3       1 <0>        -0.1132
     20 C17         3.6771   -0.1509    4.6301 C.3       1 <0>         0.1189
     21 H2          3.7030   -1.2300    4.7814 H         1 <0>         0.1079
     22 N2          5.0350    0.3818    4.4937 N.pl3     1 <0>        -0.6365
     23 C18         6.0212   -0.1747    5.1391 C.cat     1 <0>         0.7333
     24 N3          5.7872   -1.2615    5.9479 N.pl3     1 <0>        -0.8158
     25 N4          7.2955    0.3251    5.0111 N.pl3     1 <0>        -0.8210
     26 C19         0.5929    1.3962    6.0926 C.2       1 <0>         0.4957
     27 O2         -0.1000    1.1010    7.0514 O.co2     1 <0>        -0.6885
     28 O3          0.5957    2.5404    5.6716 O.co2     1 <0>        -0.6853
     29 N5          4.1596   -1.4152    2.1191 N.am      1 <0>        -0.7253
     30 C20         5.0166   -0.5546    1.5348 C.2       1 <0>         0.5083
     31 O4          4.6556    0.5713    1.2648 O.2       1 <0>        -0.5077
     32 C21         6.4235   -0.9914    1.2170 C.3       1 <0>        -0.1720
     33 H3          1.0667    1.9309   -0.0048 H         1 <0>         0.0608
     34 H4         -0.4541    1.9225   -0.9295 H         1 <0>         0.0656
     35 H5         -0.4941    1.8821    0.8495 H         1 <0>         0.0630
     36 H6          0.6161   -0.3141   -0.9563 H         1 <0>         0.0883
     37 H7         -1.8701   -0.2591    0.8114 H         1 <0>         0.0745
     38 H8         -1.8848   -0.0736   -0.9588 H         1 <0>         0.0824
     39 H9         -0.8130   -2.2966   -1.2006 H         1 <0>         0.0717
     40 H10        -0.7984   -2.4821    0.5696 H         1 <0>         0.0704
     41 H11        -2.8645   -2.8331    1.7993 H         1 <0>         0.1212
     42 H12        -5.1693   -3.6969    1.7279 H         1 <0>         0.1223
     43 H13        -6.3359   -3.9154   -0.4295 H         1 <0>         0.1209
     44 H14        -5.1981   -3.2694   -2.5155 H         1 <0>         0.1211
     45 H15        -2.8963   -2.3977   -2.4433 H         1 <0>         0.1201
     46 H16         0.2269   -0.7412    1.9062 H         1 <0>         0.4002
     47 H17         2.2521   -1.8149    2.8940 H         1 <0>         0.1149
     48 H18         1.1461    1.5416    3.6383 H         1 <0>         0.0975
     49 H19         0.6974   -0.1779    3.4568 H         1 <0>         0.0613
     50 H20         1.1109   -0.6521    5.7078 H         1 <0>         0.0754
     51 H21         3.1876    1.6029    5.8424 H         1 <0>         0.0879
     52 H22         3.1651    0.0534    6.7475 H         1 <0>         0.0750
     53 H23         4.8881   -1.6142    6.0383 H         1 <0>         0.4368
     54 H24         6.5211   -1.6757    6.4282 H         1 <0>         0.4338
     55 H25         7.4607    1.0919    4.4404 H         1 <0>         0.4362
     56 H26         8.0295   -0.0890    5.4914 H         1 <0>         0.4349
     57 H27         4.4483   -2.3157    2.3351 H         1 <0>         0.4027
     58 H28         6.5620   -2.0263    1.5297 H         1 <0>         0.0728
     59 H29         6.5955   -0.9100    0.1438 H         1 <0>         0.1002
     60 H30         7.1305   -0.3538    1.7477 H         1 <0>         0.0858
     61 H31         5.2001    1.1486    3.9230 H         1 <0>         0.4388
@<TRIPOS>BOND
     1    1    2 1
     2    1   33 1
     3    1   34 1
     4    1   35 1
     5    2    3 1
     6    2   11 1
     7    2   36 1
     8    3    4 1
     9    3   37 1
    10    3   38 1
    11    4    5 1
    12    4   39 1
    13    4   40 1
    14    5   10 ar
    15    5    6 ar
    16    6    7 ar
    17    6   41 1
    18    7    8 ar
    19    7   42 1
    20    8    9 ar
    21    8   43 1
    22    9   10 ar
    23    9   44 1
    24   10   45 1
    25   11   12 am
    26   11   46 1
    27   12   13 2
    28   12   14 1
    29   14   15 1
    30   14   29 1
    31   14   47 1
    32   15   16 1
    33   15   20 1
    34   15   17 1
    35   17   18 1
    36   17   48 1
    37   17   49 1
    38   18   19 1
    39   18   26 1
    40   18   50 1
    41   19   20 1
    42   19   51 1
    43   19   52 1
    44   20   21 1
    45   20   22 1
    46   22   23 2
    47   22   61 1
    48   23   24 1
    49   23   25 1
    50   24   53 1
    51   24   54 1
    52   25   55 1
    53   25   56 1
    54   26   27 2
    55   26   28 1
    56   29   30 am
    57   29   57 1
    58   30   31 2
    59   30   32 1
    60   32   58 1
    61   32   59 1
    62   32   60 1
@<TRIPOS>MOLECULE
CHEMBL418456__2
   61    62     0     0     0
SMALL
USER_CHARGES

@<TRIPOS>ATOM
      1 C1         -0.3766    1.2061    0.1449 C.3       1 <0>        -0.1635
      2 C2         -0.1136   -0.2971    0.0350 C.3       1 <0>         0.1415
      3 C3         -1.4469   -1.0460   -0.0125 C.3       1 <0>        -0.1197
      4 C4         -1.1872   -2.5354   -0.2474 C.3       1 <0>        -0.0805
      5 C5         -2.5005   -3.2730   -0.2942 C.ar      1 <0>        -0.0818
      6 C6         -3.0485   -3.7831    0.8679 C.ar      1 <0>        -0.1200
      7 C7         -4.2532   -4.4597    0.8250 C.ar      1 <0>        -0.1191
      8 C8         -4.9101   -4.6259   -0.3799 C.ar      1 <0>        -0.1247
      9 C9         -4.3625   -4.1151   -1.5419 C.ar      1 <0>        -0.1154
     10 C10        -3.1599   -3.4347   -1.4983 C.ar      1 <0>        -0.1163
     11 N1          0.6566   -0.7444    1.1982 N.am      1 <0>        -0.7227
     12 C11         2.0003   -0.6403    1.1972 C.2       1 <0>         0.5050
     13 O1          2.5719   -0.1762    0.2335 O.2       1 <0>        -0.5098
     14 C12         2.7926   -1.1004    2.3937 C.3       1 <0>         0.1326
     15 C13         2.9487   -2.6217    2.3476 C.3       1 <0>        -0.1036
     16 H1          1.9717   -3.1050    2.3559 H         1 <0>         0.1054
     17 C14         3.7530   -3.0464    1.0939 C.3       1 <0>        -0.0860
     18 C15         4.3222   -4.4271    1.5045 C.3       1 <0>        -0.1577
     19 C16         4.6802   -4.2604    2.9958 C.3       1 <0>        -0.1140
     20 C17         3.8040   -3.1129    3.5338 C.3       1 <0>         0.1114
     21 H2          4.4343   -2.3027    3.9004 H         1 <0>         0.1087
     22 N2          2.9372   -3.6011    4.6093 N.pl3     1 <0>        -0.6442
     23 C18         3.3646   -3.6030    5.8407 C.cat     1 <0>         0.7374
     24 N3          4.6288   -3.1469    6.1302 N.pl3     1 <0>        -0.8116
     25 N4          2.5511   -4.0611    6.8499 N.pl3     1 <0>        -0.8195
     26 C19         5.5544   -4.7503    0.6993 C.2       1 <0>         0.4948
     27 O2          6.4327   -5.4451    1.1812 O.co2     1 <0>        -0.6933
     28 O3          5.6728   -4.3170   -0.4342 O.co2     1 <0>        -0.6808
     29 N5          4.1162   -0.4729    2.3737 N.am      1 <0>        -0.7131
     30 C20         4.2965    0.7381    2.9371 C.2       1 <0>         0.5181
     31 O4          3.3863    1.2691    3.5376 O.2       1 <0>        -0.5476
     32 C21         5.6290    1.4324    2.8211 C.3       1 <0>        -0.1742
     33 H3          0.5733    1.7396    0.1788 H         1 <0>         0.0611
     34 H4         -0.9497    1.5389   -0.7205 H         1 <0>         0.0674
     35 H5         -0.9408    1.4107    1.0548 H         1 <0>         0.0560
     36 H6          0.4506   -0.5017   -0.8749 H         1 <0>         0.0931
     37 H7         -1.9720   -0.9136    0.9335 H         1 <0>         0.0693
     38 H8         -2.0568   -0.6510   -0.8249 H         1 <0>         0.0828
     39 H9         -0.6622   -2.6679   -1.1934 H         1 <0>         0.0770
     40 H10        -0.5773   -2.9305    0.5650 H         1 <0>         0.0703
     41 H11        -2.5354   -3.6532    1.8092 H         1 <0>         0.1167
     42 H12        -4.6810   -4.8588    1.7328 H         1 <0>         0.1201
     43 H13        -5.8509   -5.1552   -0.4136 H         1 <0>         0.1210
     44 H14        -4.8755   -4.2453   -2.4833 H         1 <0>         0.1226
     45 H15        -2.7339   -3.0324   -2.4056 H         1 <0>         0.1225
     46 H16         0.1995   -1.1156    1.9690 H         1 <0>         0.3946
     47 H17         2.2696   -0.8163    3.3069 H         1 <0>         0.1093
     48 H18         3.0975   -3.1408    0.2282 H         1 <0>         0.0826
     49 H19         4.5589   -2.3401    0.8944 H         1 <0>         0.0811
     50 H20         3.5680   -5.2038    1.3778 H         1 <0>         0.0760
     51 H21         4.4612   -5.1806    3.5375 H         1 <0>         0.0741
     52 H22         5.7352   -4.0072    3.1005 H         1 <0>         0.0941
     53 H23         5.2027   -2.8236    5.4182 H         1 <0>         0.4381
     54 H24         4.9468   -3.1483    7.0466 H         1 <0>         0.4350
     55 H25         1.6592   -4.3829    6.6456 H         1 <0>         0.4356
     56 H26         2.8692   -4.0625    7.7663 H         1 <0>         0.4357
     57 H27         4.8629   -0.9289    1.9548 H         1 <0>         0.4139
     58 H28         6.3162    0.8069    2.2513 H         1 <0>         0.0827
     59 H29         5.4983    2.3867    2.3109 H         1 <0>         0.1006
     60 H30         6.0364    1.6057    3.8172 H         1 <0>         0.0958
     61 H31         2.0452   -3.9229    4.4050 H         1 <0>         0.4349
@<TRIPOS>BOND
     1    1    2 1
     2    1   33 1
     3    1   34 1
     4    1   35 1
     5    2    3 1
     6    2   11 1
     7    2   36 1
     8    3    4 1
     9    3   37 1
    10    3   38 1
    11    4    5 1
    12    4   39 1
    13    4   40 1
    14    5   10 ar
    15    5    6 ar
    16    6    7 ar
    17    6   41 1
    18    7    8 ar
    19    7   42 1
    20    8    9 ar
    21    8   43 1
    22    9   10 ar
    23    9   44 1
    24   10   45 1
    25   11   12 am
    26   11   46 1
    27   12   13 2
    28   12   14 1
    29   14   15 1
    30   14   29 1
    31   14   47 1
    32   15   16 1
    33   15   20 1
    34   15   17 1
    35   17   18 1
    36   17   48 1
    37   17   49 1
    38   18   19 1
    39   18   26 1
    40   18   50 1
    41   19   20 1
    42   19   51 1
    43   19   52 1
    44   20   21 1
    45   20   22 1
    46   22   23 2
    47   22   61 1
    48   23   24 1
    49   23   25 1
    50   24   53 1
    51   24   54 1
    52   25   55 1
    53   25   56 1
    54   26   27 2
    55   26   28 1
    56   29   30 am
    57   29   57 1
    58   30   31 2
    59   30   32 1
    60   32   58 1
    61   32   59 1
    62   32   60 1
@<TRIPOS>MOLECULE
CHEMBL418456__3
   61    62     0     0     0
SMALL
USER_CHARGES

@<TRIPOS>ATOM
      1 C1          0.9864    2.4867    0.4907 C.3       1 <0>        -0.1633
      2 C2          0.5445    1.0352    0.2936 C.3       1 <0>         0.1414
      3 C3         -0.9832    0.9584    0.3251 C.3       1 <0>        -0.1197
      4 C4         -1.4288   -0.4697    0.0044 C.3       1 <0>        -0.0808
      5 C5         -2.9335   -0.5454    0.0355 C.ar      1 <0>        -0.0813
      6 C6         -3.5862   -0.8479    1.2159 C.ar      1 <0>        -0.1198
      7 C7         -4.9665   -0.9174    1.2444 C.ar      1 <0>        -0.1191
      8 C8         -5.6942   -0.6838    0.0925 C.ar      1 <0>        -0.1247
      9 C9         -5.0416   -0.3804   -1.0877 C.ar      1 <0>        -0.1154
     10 C10        -3.6615   -0.3067   -1.1152 C.ar      1 <0>        -0.1161
     11 N1          1.0974    0.2063    1.3676 N.am      1 <0>        -0.7214
     12 C11         2.3441   -0.2941    1.2588 C.2       1 <0>         0.5059
     13 O1          3.0083   -0.0582    0.2718 O.2       1 <0>        -0.5138
     14 C12         2.9129   -1.1467    2.3636 C.3       1 <0>         0.1310
     15 C13         2.3710   -2.5721    2.2382 C.3       1 <0>        -0.0942
     16 H1          1.2811   -2.5577    2.2324 H         1 <0>         0.1036
     17 C14         2.8964   -3.2240    0.9472 C.3       1 <0>        -0.1119
     18 C15         3.7093   -4.4623    1.3781 C.3       1 <0>        -0.1546
     19 C16         3.1384   -4.8254    2.7714 C.3       1 <0>        -0.1127
     20 C17         2.8819   -3.4366    3.4092 C.3       1 <0>         0.1105
     21 H2          3.8075   -3.0250    3.8118 H         1 <0>         0.1124
     22 N2          1.8634   -3.5330    4.4579 N.pl3     1 <0>        -0.6430
     23 C18         2.2166   -3.7733    5.6893 C.cat     1 <0>         0.7381
     24 N3          3.5449   -3.9362    6.0041 N.pl3     1 <0>        -0.8134
     25 N4          1.2608   -3.8637    6.6734 N.pl3     1 <0>        -0.8188
     26 C19         3.4962   -5.5965    0.4090 C.2       1 <0>         0.4968
     27 O2          4.4341   -6.3041    0.0829 O.co2     1 <0>        -0.6867
     28 O3          2.3860   -5.8066   -0.0491 O.co2     1 <0>        -0.6861
     29 N5          4.3741   -1.1690    2.2603 N.am      1 <0>        -0.7124
     30 C20         5.1056   -0.1980    2.8422 C.2       1 <0>         0.5180
     31 O4          4.5623    0.6427    3.5270 O.2       1 <0>        -0.5474
     32 C21         6.5987   -0.1569    2.6419 C.3       1 <0>        -0.1738
     33 H3          2.0748    2.5414    0.4682 H         1 <0>         0.0609
     34 H4          0.5750    3.1034   -0.3084 H         1 <0>         0.0676
     35 H5          0.6241    2.8493    1.4527 H         1 <0>         0.0561
     36 H6          0.9068    0.6726   -0.6684 H         1 <0>         0.0929
     37 H7         -1.3406    1.2365    1.3166 H         1 <0>         0.0693
     38 H8         -1.3968    1.6430   -0.4154 H         1 <0>         0.0829
     39 H9         -1.0714   -0.7478   -0.9871 H         1 <0>         0.0772
     40 H10        -1.0152   -1.1543    0.7449 H         1 <0>         0.0708
     41 H11        -3.0176   -1.0304    2.1158 H         1 <0>         0.1165
     42 H12        -5.4763   -1.1544    2.1665 H         1 <0>         0.1200
     43 H13        -6.7726   -0.7387    0.1146 H         1 <0>         0.1210
     44 H14        -5.6101   -0.1982   -1.9877 H         1 <0>         0.1224
     45 H15        -3.1518   -0.0660   -2.0364 H         1 <0>         0.1224
     46 H16         0.5663    0.0176    2.1570 H         1 <0>         0.3949
     47 H17         2.6231   -0.7315    3.3288 H         1 <0>         0.1086
     48 H18         2.0615   -3.5269    0.3153 H         1 <0>         0.0981
     49 H19         3.5374   -2.5250    0.4100 H         1 <0>         0.0773
     50 H20         4.7686   -4.2164    1.4521 H         1 <0>         0.0738
     51 H21         2.2069   -5.3830    2.6739 H         1 <0>         0.0902
     52 H22         3.8681   -5.3889    3.3530 H         1 <0>         0.0764
     53 H23         4.2193   -3.8724    5.3098 H         1 <0>         0.4374
     54 H24         3.8077   -4.1150    6.9206 H         1 <0>         0.4351
     55 H25         0.3236   -3.7487    6.4512 H         1 <0>         0.4363
     56 H26         1.5236   -4.0425    7.5898 H         1 <0>         0.4358
     57 H27         4.8150   -1.8825    1.7732 H         1 <0>         0.4136
     58 H28         6.9024   -0.9858    2.0024 H         1 <0>         0.0820
     59 H29         6.8762    0.7860    2.1708 H         1 <0>         0.1003
     60 H30         7.0973   -0.2414    3.6074 H         1 <0>         0.0961
     61 H31         0.9262   -3.4180    4.2357 H         1 <0>         0.4366
@<TRIPOS>BOND
     1    1    2 1
     2    1   33 1
     3    1   34 1
     4    1   35 1
     5    2    3 1
     6    2   11 1
     7    2   36 1
     8    3    4 1
     9    3   37 1
    10    3   38 1
    11    4    5 1
    12    4   39 1
    13    4   40 1
    14    5   10 ar
    15    5    6 ar
    16    6    7 ar
    17    6   41 1
    18    7    8 ar
    19    7   42 1
    20    8    9 ar
    21    8   43 1
    22    9   10 ar
    23    9   44 1
    24   10   45 1
    25   11   12 am
    26   11   46 1
    27   12   13 2
    28   12   14 1
    29   14   15 1
    30   14   29 1
    31   14   47 1
    32   15   16 1
    33   15   20 1
    34   15   17 1
    35   17   18 1
    36   17   48 1
    37   17   49 1
    38   18   19 1
    39   18   26 1
    40   18   50 1
    41   19   20 1
    42   19   51 1
    43   19   52 1
    44   20   21 1
    45   20   22 1
    46   22   23 2
    47   22   61 1
    48   23   24 1
    49   23   25 1
    50   24   53 1
    51   24   54 1
    52   25   55 1
    53   25   56 1
    54   26   27 2
    55   26   28 1
    56   29   30 am
    57   29   57 1
    58   30   31 2
    59   30   32 1
    60   32   58 1
    61   32   59 1
    62   32   60 1
@<TRIPOS>MOLECULE
CHEMBL418456__4
   61    62     0     0     0
SMALL
USER_CHARGES

@<TRIPOS>ATOM
      1 C1         -0.0187    1.5258    0.0104 C.3       1 <0>        -0.1617
      2 C2          0.0021   -0.0041    0.0020 C.3       1 <0>         0.1436
      3 C3          0.7421   -0.5109    1.2415 C.3       1 <0>        -0.1209
      4 C4          0.8719   -2.0337    1.1708 C.3       1 <0>        -0.0818
      5 C5          1.6008   -2.5330    2.3917 C.ar      1 <0>        -0.0843
      6 C6          2.9789   -2.6409    2.3781 C.ar      1 <0>        -0.1220
      7 C7          3.6475   -3.0988    3.4980 C.ar      1 <0>        -0.1259
      8 C8          2.9380   -3.4484    4.6317 C.ar      1 <0>        -0.1266
      9 C9          1.5600   -3.3396    4.6457 C.ar      1 <0>        -0.1162
     10 C10         0.8918   -2.8776    3.5272 C.ar      1 <0>        -0.0998
     11 N1         -1.3723   -0.5112    0.0124 N.am      1 <0>        -0.7196
     12 C11        -2.0508   -0.6427   -1.1446 C.2       1 <0>         0.5070
     13 O1         -1.5236   -0.3413   -2.1944 O.2       1 <0>        -0.5103
     14 C12        -3.4646   -1.1643   -1.1339 C.3       1 <0>         0.1337
     15 C13        -3.4446   -2.6897   -1.0166 C.3       1 <0>        -0.1090
     16 H1         -2.9001   -3.1286   -1.8527 H         1 <0>         0.1146
     17 C14        -2.8112   -3.1216    0.3293 C.3       1 <0>        -0.0892
     18 C15        -3.4046   -4.5355    0.5482 C.3       1 <0>        -0.1554
     19 C16        -4.8569   -4.4189    0.0413 C.3       1 <0>        -0.1136
     20 C17        -4.8824   -3.2456   -0.9572 C.3       1 <0>         0.1182
     21 H2         -5.5672   -2.4731   -0.6075 H         1 <0>         0.1038
     22 N2         -5.2927   -3.7186   -2.2817 N.pl3     1 <0>        -0.6384
     23 C18        -6.5574   -3.7676   -2.5933 C.cat     1 <0>         0.7336
     24 N3         -7.5063   -3.3754   -1.6790 N.pl3     1 <0>        -0.8139
     25 N4         -6.9424   -4.2114   -3.8362 N.pl3     1 <0>        -0.8217
     26 C19        -3.3840   -4.8953    2.0115 C.2       1 <0>         0.4969
     27 O2         -4.2348   -5.6397    2.4682 O.co2     1 <0>        -0.6945
     28 O3         -2.5165   -4.4422    2.7385 O.co2     1 <0>        -0.6799
     29 N5         -4.1367   -0.7790   -2.3773 N.am      1 <0>        -0.7258
     30 C20        -3.6469   -1.1904   -3.5636 C.2       1 <0>         0.5079
     31 O4         -2.6497   -1.8796   -3.6017 O.2       1 <0>        -0.5054
     32 C21        -4.3382   -0.7940   -4.8426 C.3       1 <0>        -0.1717
     33 H3          1.0039    1.9031    0.0027 H         1 <0>         0.0663
     34 H4         -0.5459    1.8868   -0.8726 H         1 <0>         0.0572
     35 H5         -0.5289    1.8773    0.9072 H         1 <0>         0.0575
     36 H6          0.5123   -0.3556   -0.8948 H         1 <0>         0.0886
     37 H7          1.7350   -0.0630    1.2804 H         1 <0>         0.0798
     38 H8          0.1838   -0.2350    2.1361 H         1 <0>         0.0723
     39 H9         -0.1210   -2.4817    1.1320 H         1 <0>         0.0814
     40 H10         1.4302   -2.3096    0.2763 H         1 <0>         0.0681
     41 H11         3.5331   -2.3677    1.4923 H         1 <0>         0.1159
     42 H12         4.7241   -3.1838    3.4870 H         1 <0>         0.1169
     43 H13         3.4603   -3.8068    5.5064 H         1 <0>         0.1174
     44 H14         1.0057   -3.6130    5.5313 H         1 <0>         0.1212
     45 H15        -0.1845   -2.7891    3.5394 H         1 <0>         0.1330
     46 H16        -1.7940   -0.7522    0.8520 H         1 <0>         0.4027
     47 H17        -4.0015   -0.7416   -0.2847 H         1 <0>         0.1136
     48 H18        -1.7252   -3.1667    0.2482 H         1 <0>         0.0830
     49 H19        -3.1121   -2.4479    1.1316 H         1 <0>         0.0771
     50 H20        -2.8551   -5.2743   -0.0351 H         1 <0>         0.0737
     51 H21        -5.1523   -5.3403   -0.4605 H         1 <0>         0.0710
     52 H22        -5.5284   -4.2157    0.8755 H         1 <0>         0.0930
     53 H23        -7.2346   -3.0623   -0.8021 H         1 <0>         0.4377
     54 H24        -8.4475   -3.4119   -1.9109 H         1 <0>         0.4339
     55 H25        -6.2729   -4.4881   -4.4813 H         1 <0>         0.4354
     56 H26        -7.8836   -4.2479   -4.0681 H         1 <0>         0.4348
     57 H27        -4.9343   -0.2278   -2.3468 H         1 <0>         0.4021
     58 H28        -5.2084   -0.1802   -4.6101 H         1 <0>         0.0721
     59 H29        -3.6490   -0.2256   -5.4671 H         1 <0>         0.0993
     60 H30        -4.6573   -1.6896   -5.3758 H         1 <0>         0.0873
     61 H31        -4.6232   -3.9952   -2.9267 H         1 <0>         0.4362
@<TRIPOS>BOND
     1    1    2 1
     2    1   33 1
     3    1   34 1
     4    1   35 1
     5    2    3 1
     6    2   11 1
     7    2   36 1
     8    3    4 1
     9    3   37 1
    10    3   38 1
    11    4    5 1
    12    4   39 1
    13    4   40 1
    14    5   10 ar
    15    5    6 ar
    16    6    7 ar
    17    6   41 1
    18    7    8 ar
    19    7   42 1
    20    8    9 ar
    21    8   43 1
    22    9   10 ar
    23    9   44 1
    24   10   45 1
    25   11   12 am
    26   11   46 1
    27   12   13 2
    28   12   14 1
    29   14   15 1
    30   14   29 1
    31   14   47 1
    32   15   16 1
    33   15   20 1
    34   15   17 1
    35   17   18 1
    36   17   48 1
    37   17   49 1
    38   18   19 1
    39   18   26 1
    40   18   50 1
    41   19   20 1
    42   19   51 1
    43   19   52 1
    44   20   21 1
    45   20   22 1
    46   22   23 2
    47   22   61 1
    48   23   24 1
    49   23   25 1
    50   24   53 1
    51   24   54 1
    52   25   55 1
    53   25   56 1
    54   26   27 2
    55   26   28 1
    56   29   30 am
    57   29   57 1
    58   30   31 2
    59   30   32 1
    60   32   58 1
    61   32   59 1
    62   32   60 1
@<TRIPOS>MOLECULE
CHEMBL418456__5
   61    62     0     0     0
SMALL
USER_CHARGES

@<TRIPOS>ATOM
      1 C1          0.0142    1.5452   -0.1404 C.3       1 <0>        -0.1620
      2 C2          0.0275    0.0157   -0.1010 C.3       1 <0>         0.1441
      3 C3          0.7879   -0.4558    1.1402 C.3       1 <0>        -0.1213
      4 C4          0.9092   -1.9808    1.1152 C.3       1 <0>        -0.0820
      5 C5          1.6581   -2.4452    2.3377 C.ar      1 <0>        -0.0811
      6 C6          3.0351   -2.5608    2.3022 C.ar      1 <0>        -0.1203
      7 C7          3.7221   -2.9868    3.4236 C.ar      1 <0>        -0.1218
      8 C8          3.0320   -3.2968    4.5806 C.ar      1 <0>        -0.1255
      9 C9          1.6551   -3.1803    4.6164 C.ar      1 <0>        -0.1149
     10 C10         0.9685   -2.7502    3.4963 C.ar      1 <0>        -0.1070
     11 N1         -1.3488   -0.4834   -0.0494 N.am      1 <0>        -0.7206
     12 C11        -2.0492   -0.6477   -1.1891 C.2       1 <0>         0.5076
     13 O1         -1.5750   -0.2957   -2.2484 O.2       1 <0>        -0.5099
     14 C12        -3.4216   -1.2689   -1.1473 C.3       1 <0>         0.1321
     15 C13        -3.2909   -2.7832   -0.9722 C.3       1 <0>        -0.0999
     16 H1         -2.6209   -3.1899   -1.7296 H         1 <0>         0.1118
     17 C14        -2.7556   -3.1070    0.4337 C.3       1 <0>        -0.1006
     18 C15        -3.8363   -3.9585    1.1314 C.3       1 <0>        -0.1552
     19 C16        -4.6324   -4.5929   -0.0361 C.3       1 <0>        -0.1133
     20 C17        -4.6780   -3.4494   -1.0810 C.3       1 <0>         0.1189
     21 H2         -5.4641   -2.7366   -0.8321 H         1 <0>         0.1078
     22 N2         -4.8825   -3.9911   -2.4267 N.pl3     1 <0>        -0.6365
     23 C18        -6.0909   -4.1468   -2.8899 C.cat     1 <0>         0.7333
     24 N3         -7.1735   -3.8026   -2.1155 N.pl3     1 <0>        -0.8158
     25 N4         -6.2828   -4.6551   -4.1528 N.pl3     1 <0>        -0.8210
     26 C19        -3.1985   -5.0296    1.9782 C.2       1 <0>         0.4959
     27 O2         -3.6651   -5.3008    3.0715 O.co2     1 <0>        -0.6887
     28 O3         -2.2159   -5.6249    1.5701 O.co2     1 <0>        -0.6827
     29 N5         -4.1263   -0.9811   -2.3990 N.am      1 <0>        -0.7253
     30 C20        -3.6142   -1.4016   -3.5727 C.2       1 <0>         0.5083
     31 O4         -2.5700   -2.0182   -3.5925 O.2       1 <0>        -0.5077
     32 C21        -4.3390   -1.1055   -4.8603 C.3       1 <0>        -0.1720
     33 H3          1.0383    1.9166   -0.1788 H         1 <0>         0.0662
     34 H4         -0.5275    1.8811   -1.0247 H         1 <0>         0.0589
     35 H5         -0.4777    1.9274    0.7540 H         1 <0>         0.0568
     36 H6          0.5194   -0.3665   -0.9954 H         1 <0>         0.0886
     37 H7          1.7835   -0.0121    1.1467 H         1 <0>         0.0812
     38 H8          0.2475   -0.1489    2.0357 H         1 <0>         0.0710
     39 H9         -0.0864   -2.4244    1.1087 H         1 <0>         0.0783
     40 H10         1.4496   -2.2876    0.2197 H         1 <0>         0.0714
     41 H11         3.5743   -2.3186    1.3983 H         1 <0>         0.1178
     42 H12         4.7979   -3.0778    3.3957 H         1 <0>         0.1187
     43 H13         3.5687   -3.6303    5.4565 H         1 <0>         0.1191
     44 H14         1.1159   -3.4228    5.5202 H         1 <0>         0.1218
     45 H15        -0.1070   -2.6556    3.5254 H         1 <0>         0.1218
     46 H16        -1.7561   -0.6957    0.8050 H         1 <0>         0.4001
     47 H17        -3.9831   -0.8535   -0.3105 H         1 <0>         0.1150
     48 H18        -1.8263   -3.6716    0.3585 H         1 <0>         0.0984
     49 H19        -2.5889   -2.1853    0.9912 H         1 <0>         0.0610
     50 H20        -4.4862   -3.3278    1.7380 H         1 <0>         0.0748
     51 H21        -4.1066   -5.4600   -0.4359 H         1 <0>         0.0879
     52 H22        -5.6383   -4.8638    0.2846 H         1 <0>         0.0747
     53 H23        -7.0381   -3.4440   -1.2245 H         1 <0>         0.4367
     54 H24        -8.0728   -3.9185   -2.4602 H         1 <0>         0.4338
     55 H25        -5.5189   -4.8978   -4.6991 H         1 <0>         0.4362
     56 H26        -7.1821   -4.7709   -4.4975 H         1 <0>         0.4349
     57 H27        -4.9614   -0.4879   -2.3831 H         1 <0>         0.4026
     58 H28        -5.2500   -0.5474   -4.6444 H         1 <0>         0.0728
     59 H29        -3.6959   -0.5135   -5.5115 H         1 <0>         0.1002
     60 H30        -4.5954   -2.0416   -5.3564 H         1 <0>         0.0858
     61 H31        -4.1187   -4.2339   -2.9731 H         1 <0>         0.4388
@<TRIPOS>BOND
     1    1    2 1
     2    1   33 1
     3    1   34 1
     4    1   35 1
     5    2    3 1
     6    2   11 1
     7    2   36 1
     8    3    4 1
     9    3   37 1
    10    3   38 1
    11    4    5 1
    12    4   39 1
    13    4   40 1
    14    5   10 ar
    15    5    6 ar
    16    6    7 ar
    17    6   41 1
    18    7    8 ar
    19    7   42 1
    20    8    9 ar
    21    8   43 1
    22    9   10 ar
    23    9   44 1
    24   10   45 1
    25   11   12 am
    26   11   46 1
    27   12   13 2
    28   12   14 1
    29   14   15 1
    30   14   29 1
    31   14   47 1
    32   15   16 1
    33   15   20 1
    34   15   17 1
    35   17   18 1
    36   17   48 1
    37   17   49 1
    38   18   19 1
    39   18   26 1
    40   18   50 1
    41   19   20 1
    42   19   51 1
    43   19   52 1
    44   20   21 1
    45   20   22 1
    46   22   23 2
    47   22   61 1
    48   23   24 1
    49   23   25 1
    50   24   53 1
    51   24   54 1
    52   25   55 1
    53   25   56 1
    54   26   27 2
    55   26   28 1
    56   29   30 am
    57   29   57 1
    58   30   31 2
    59   30   32 1
    60   32   58 1
    61   32   59 1
    62   32   60 1
@<TRIPOS>MOLECULE
CHEMBL418456__6
   61    62     0     0     0
SMALL
USER_CHARGES

@<TRIPOS>ATOM
      1 C1         -0.1824    1.7304   -0.0311 C.3       1 <0>        -0.1655
      2 C2         -0.1494    0.2143    0.1726 C.3       1 <0>         0.1423
      3 C3          0.4608   -0.1034    1.5392 C.3       1 <0>        -0.1196
      4 C4          0.6088   -1.6186    1.6918 C.3       1 <0>        -0.0805
      5 C5          1.2098   -1.9316    3.0379 C.ar      1 <0>        -0.0817
      6 C6          2.5826   -2.0104    3.1804 C.ar      1 <0>        -0.1172
      7 C7          3.1339   -2.2975    4.4151 C.ar      1 <0>        -0.1159
      8 C8          2.3125   -2.5054    5.5074 C.ar      1 <0>        -0.1249
      9 C9          0.9398   -2.4257    5.3650 C.ar      1 <0>        -0.1186
     10 C10         0.3886   -2.1343    4.1312 C.ar      1 <0>        -0.1194
     11 N1         -1.5135   -0.3164    0.1116 N.am      1 <0>        -0.7228
     12 C11        -2.0663   -0.6185   -1.0799 C.2       1 <0>         0.5050
     13 O1         -1.4346   -0.4509   -2.1015 O.2       1 <0>        -0.5098
     14 C12        -3.4696   -1.1644   -1.1427 C.3       1 <0>         0.1326
     15 C13        -4.4705   -0.0145   -1.0128 C.3       1 <0>        -0.1036
     16 H1         -4.3297    0.5074   -0.0663 H         1 <0>         0.1057
     17 C14        -4.3241    0.9683   -2.2009 C.3       1 <0>        -0.0860
     18 C15        -5.7126    1.6530   -2.2511 C.3       1 <0>        -0.1577
     19 C16        -6.7054    0.5196   -1.9202 C.3       1 <0>        -0.1140
     20 C17        -5.9158   -0.5411   -1.1293 C.3       1 <0>         0.1114
     21 H2         -5.9254   -1.4899   -1.6657 H         1 <0>         0.1087
     22 N2         -6.4966   -0.7122    0.2048 N.pl3     1 <0>        -0.6442
     23 C18        -7.4650   -1.5648    0.3895 C.cat     1 <0>         0.7375
     24 N3         -7.9414   -2.3036   -0.6676 N.pl3     1 <0>        -0.8117
     25 N4         -8.0100   -1.7254    1.6414 N.pl3     1 <0>        -0.8196
     26 C19        -5.9800    2.2029   -3.6285 C.2       1 <0>         0.4946
     27 O2         -7.1236    2.2737   -4.0452 O.co2     1 <0>        -0.6933
     28 O3         -5.0527    2.5771   -4.3261 O.co2     1 <0>        -0.6807
     29 N5         -3.6717   -1.8454   -2.4239 N.am      1 <0>        -0.7132
     30 C20        -3.3448   -3.1464   -2.5546 C.2       1 <0>         0.5181
     31 O4         -2.9667   -3.7765   -1.5897 O.2       1 <0>        -0.5473
     32 C21        -3.4489   -3.8181   -3.8995 C.3       1 <0>        -0.1743
     33 H3          0.8326    2.1252    0.0143 H         1 <0>         0.0675
     34 H4         -0.6171    1.9567   -1.0047 H         1 <0>         0.0657
     35 H5         -0.7861    2.1891    0.7519 H         1 <0>         0.0567
     36 H6          0.4544   -0.2444   -0.6104 H         1 <0>         0.0903
     37 H7          1.4409    0.3671    1.6178 H         1 <0>         0.0828
     38 H8         -0.1899    0.2791    2.3255 H         1 <0>         0.0698
     39 H9         -0.3712   -2.0891    1.6132 H         1 <0>         0.0713
     40 H10         1.2596   -2.0011    0.9055 H         1 <0>         0.0740
     41 H11         3.2243   -1.8480    2.3271 H         1 <0>         0.1218
     42 H12         4.2063   -2.3597    4.5264 H         1 <0>         0.1224
     43 H13         2.7432   -2.7304    6.4719 H         1 <0>         0.1213
     44 H14         0.2980   -2.5884    6.2183 H         1 <0>         0.1205
     45 H15        -0.6837   -2.0684    4.0208 H         1 <0>         0.1174
     46 H16        -2.0188   -0.4504    0.9286 H         1 <0>         0.3946
     47 H17        -3.6210   -1.8718   -0.3274 H         1 <0>         0.1091
     48 H18        -3.5400    1.6992   -2.0033 H         1 <0>         0.0824
     49 H19        -4.1260    0.4284   -3.1268 H         1 <0>         0.0811
     50 H20        -5.7747    2.4447   -1.5046 H         1 <0>         0.0759
     51 H21        -7.5227    0.9054   -1.3107 H         1 <0>         0.0741
     52 H22        -7.0975    0.0862   -2.8402 H         1 <0>         0.0941
     53 H23        -7.5569   -2.1903   -1.5509 H         1 <0>         0.4381
     54 H24        -8.6621   -2.9381   -0.5301 H         1 <0>         0.4350
     55 H25        -7.6739   -1.2042    2.3872 H         1 <0>         0.4357
     56 H26        -8.7307   -2.3599    1.7789 H         1 <0>         0.4357
     57 H27        -4.0408   -1.3600   -3.1783 H         1 <0>         0.4138
     58 H28        -3.8029   -3.0991   -4.6383 H         1 <0>         0.0826
     59 H29        -2.4687   -4.1912   -4.1962 H         1 <0>         0.1006
     60 H30        -4.1506   -4.6499   -3.8368 H         1 <0>         0.0958
     61 H31        -6.1604   -0.1910    0.9506 H         1 <0>         0.4350
@<TRIPOS>BOND
     1    1    2 1
     2    1   33 1
     3    1   34 1
     4    1   35 1
     5    2    3 1
     6    2   11 1
     7    2   36 1
     8    3    4 1
     9    3   37 1
    10    3   38 1
    11    4    5 1
    12    4   39 1
    13    4   40 1
    14    5   10 ar
    15    5    6 ar
    16    6    7 ar
    17    6   41 1
    18    7    8 ar
    19    7   42 1
    20    8    9 ar
    21    8   43 1
    22    9   10 ar
    23    9   44 1
    24   10   45 1
    25   11   12 am
    26   11   46 1
    27   12   13 2
    28   12   14 1
    29   14   15 1
    30   14   29 1
    31   14   47 1
    32   15   16 1
    33   15   20 1
    34   15   17 1
    35   17   18 1
    36   17   48 1
    37   17   49 1
    38   18   19 1
    39   18   26 1
    40   18   50 1
    41   19   20 1
    42   19   51 1
    43   19   52 1
    44   20   21 1
    45   20   22 1
    46   22   23 2
    47   22   61 1
    48   23   24 1
    49   23   25 1
    50   24   53 1
    51   24   54 1
    52   25   55 1
    53   25   56 1
    54   26   27 2
    55   26   28 1
    56   29   30 am
    57   29   57 1
    58   30   31 2
    59   30   32 1
    60   32   58 1
    61   32   59 1
    62   32   60 1
@<TRIPOS>MOLECULE
CHEMBL418456__7
   61    62     0     0     0
SMALL
USER_CHARGES

@<TRIPOS>ATOM
      1 C1          0.6125    0.3999   -0.3174 C.3       1 <0>        -0.1656
      2 C2          0.2243   -1.0640   -0.5351 C.3       1 <0>         0.1423
      3 C3          0.9443   -1.9406    0.4915 C.3       1 <0>        -0.1198
      4 C4          0.6551   -3.4138    0.1965 C.3       1 <0>        -0.0803
      5 C5          1.3642   -4.2773    1.2077 C.ar      1 <0>        -0.0817
      6 C6          2.6522   -4.7145    0.9611 C.ar      1 <0>        -0.1171
      7 C7          3.3027   -5.5065    1.8887 C.ar      1 <0>        -0.1159
      8 C8          2.6654   -5.8610    3.0630 C.ar      1 <0>        -0.1248
      9 C9          1.3777   -5.4231    3.3100 C.ar      1 <0>        -0.1186
     10 C10         0.7288   -4.6275    2.3843 C.ar      1 <0>        -0.1194
     11 N1         -1.2241   -1.2141   -0.3753 N.am      1 <0>        -0.7216
     12 C11        -2.0454   -0.9759   -1.4171 C.2       1 <0>         0.5059
     13 O1         -1.5852   -0.6373   -2.4869 O.2       1 <0>        -0.5138
     14 C12        -3.5354   -1.1304   -1.2526 C.3       1 <0>         0.1311
     15 C13        -4.1047    0.1141   -0.5686 C.3       1 <0>        -0.0944
     16 H1         -3.5900    0.2890    0.3762 H         1 <0>         0.1040
     17 C14        -3.9495    1.3384   -1.4878 C.3       1 <0>        -0.1118
     18 C15        -5.3732    1.8621   -1.7683 C.3       1 <0>        -0.1546
     19 C16        -6.2105    1.3455   -0.5721 C.3       1 <0>        -0.1127
     20 C17        -5.6170   -0.0638   -0.3215 C.3       1 <0>         0.1106
     21 H2         -6.0361   -0.7845   -1.0237 H         1 <0>         0.1124
     22 N2         -5.8646   -0.4876    1.0589 N.pl3     1 <0>        -0.6430
     23 C18        -6.9490   -1.1482    1.3533 C.cat     1 <0>         0.7380
     24 N3         -7.8604   -1.4472    0.3684 N.pl3     1 <0>        -0.8134
     25 N4         -7.1813   -1.5458    2.6486 N.pl3     1 <0>        -0.8187
     26 C19        -5.3828    3.3686   -1.8074 C.2       1 <0>         0.4966
     27 O2         -6.0562    3.9525   -2.6392 O.co2     1 <0>        -0.6864
     28 O3         -4.7171    4.0034   -1.0072 O.co2     1 <0>        -0.6864
     29 N5         -4.1578   -1.2920   -2.5690 N.am      1 <0>        -0.7125
     30 C20        -4.2475   -2.5158   -3.1263 C.2       1 <0>         0.5180
     31 O4         -3.8964   -3.4940   -2.5013 O.2       1 <0>        -0.5471
     32 C21        -4.7840   -2.6687   -4.5263 C.3       1 <0>        -0.1739
     33 H3          1.6902    0.5116   -0.4363 H         1 <0>         0.0676
     34 H4          0.0995    1.0244   -1.0488 H         1 <0>         0.0654
     35 H5          0.3242    0.7065    0.6881 H         1 <0>         0.0578
     36 H6          0.5126   -1.3706   -1.5406 H         1 <0>         0.0901
     37 H7          2.0180   -1.7622    0.4324 H         1 <0>         0.0830
     38 H8          0.5896   -1.6941    1.4923 H         1 <0>         0.0701
     39 H9         -0.4186   -3.5922    0.2556 H         1 <0>         0.0711
     40 H10         1.0098   -3.6604   -0.8043 H         1 <0>         0.0739
     41 H11         3.1502   -4.4375    0.0437 H         1 <0>         0.1218
     42 H12         4.3088   -5.8487    1.6958 H         1 <0>         0.1225
     43 H13         3.1734   -6.4804    3.7874 H         1 <0>         0.1213
     44 H14         0.8797   -5.7003    4.2273 H         1 <0>         0.1205
     45 H15        -0.2759   -4.2822    2.5789 H         1 <0>         0.1173
     46 H16        -1.5922   -1.4849    0.4804 H         1 <0>         0.3948
     47 H17        -3.7444   -2.0085   -0.6416 H         1 <0>         0.1085
     48 H18        -3.3602    2.1077   -0.9887 H         1 <0>         0.0979
     49 H19        -3.4686    1.0459   -2.4212 H         1 <0>         0.0773
     50 H20        -5.7526    1.4529   -2.7046 H         1 <0>         0.0738
     51 H21        -6.0715    1.9833    0.3009 H         1 <0>         0.0902
     52 H22        -7.2652    1.2788   -0.8390 H         1 <0>         0.0765
     53 H23        -7.6965   -1.1667   -0.5455 H         1 <0>         0.4374
     54 H24        -8.6674   -1.9388    0.5875 H         1 <0>         0.4351
     55 H25        -6.5383   -1.3348    3.3435 H         1 <0>         0.4363
     56 H26        -7.9883   -2.0374    2.8677 H         1 <0>         0.4358
     57 H27        -4.5054   -0.5181   -3.0394 H         1 <0>         0.4136
     58 H28        -5.0456   -1.6882   -4.9242 H         1 <0>         0.0819
     59 H29        -4.0235   -3.1264   -5.1589 H         1 <0>         0.1003
     60 H30        -5.6710   -3.3020   -4.5083 H         1 <0>         0.0961
     61 H31        -5.2215   -0.2766    1.7537 H         1 <0>         0.4367
@<TRIPOS>BOND
     1    1    2 1
     2    1   33 1
     3    1   34 1
     4    1   35 1
     5    2    3 1
     6    2   11 1
     7    2   36 1
     8    3    4 1
     9    3   37 1
    10    3   38 1
    11    4    5 1
    12    4   39 1
    13    4   40 1
    14    5   10 ar
    15    5    6 ar
    16    6    7 ar
    17    6   41 1
    18    7    8 ar
    19    7   42 1
    20    8    9 ar
    21    8   43 1
    22    9   10 ar
    23    9   44 1
    24   10   45 1
    25   11   12 am
    26   11   46 1
    27   12   13 2
    28   12   14 1
    29   14   15 1
    30   14   29 1
    31   14   47 1
    32   15   16 1
    33   15   20 1
    34   15   17 1
    35   17   18 1
    36   17   48 1
    37   17   49 1
    38   18   19 1
    39   18   26 1
    40   18   50 1
    41   19   20 1
    42   19   51 1
    43   19   52 1
    44   20   21 1
    45   20   22 1
    46   22   23 2
    47   22   61 1
    48   23   24 1
    49   23   25 1
    50   24   53 1
    51   24   54 1
    52   25   55 1
    53   25   56 1
    54   26   27 2
    55   26   28 1
    56   29   30 am
    57   29   57 1
    58   30   31 2
    59   30   32 1
    60   32   58 1
    61   32   59 1
    62   32   60 1
@<TRIPOS>MOLECULE
CHEMBL442774
   53    55     0     0     0
SMALL
USER_CHARGES

@<TRIPOS>ATOM
      1 C1          1.2555    0.1653   -1.2145 C.3       1 <0>        -0.1746
      2 C2          0.8805   -1.1700   -0.6250 C.2       1 <0>         0.5124
      3 O1          1.7466   -1.9358   -0.2583 O.2       1 <0>        -0.5024
      4 N1         -0.4173   -1.5132   -0.5052 N.am      1 <0>        -0.7491
      5 C3         -0.7859   -2.7606    0.1689 C.3       1 <0>         0.0948
      6 H1          0.0259   -3.4821    0.0763 H         1 <0>         0.1346
      7 C4         -2.0597   -3.3322   -0.4625 C.3       1 <0>         0.0890
      8 H2         -2.7996   -2.5390   -0.5697 H         1 <0>         0.1445
      9 C5         -2.6127   -4.4180    0.4202 C.2       1 <0>        -0.3761
     10 C6         -2.2544   -4.5490    1.6903 C.2       1 <0>         0.1430
     11 O2         -1.3615   -3.7273    2.2940 O.3       1 <0>        -0.2530
     12 C7         -1.0658   -2.4841    1.6523 C.3       1 <0>         0.0557
     13 H3         -1.9187   -1.8119    1.7460 H         1 <0>         0.1013
     14 C8          0.1476   -1.8580    2.2899 C.2       1 <0>         0.5304
     15 O3          0.9784   -2.5579    2.8294 O.2       1 <0>        -0.4768
     16 N2          0.3097   -0.5204    2.2608 N.am      1 <0>        -0.5793
     17 C9         -0.7545    0.3351    1.7299 C.3       1 <0>         0.1121
     18 C10        -1.7031    0.7316    2.8630 C.3       1 <0>        -0.1060
     19 C11        -2.7979    1.6115    2.3168 C.ar      1 <0>        -0.0839
     20 C12        -2.6293    2.9831    2.2817 C.ar      1 <0>        -0.1140
     21 C13        -3.6335    3.7903    1.7807 C.ar      1 <0>        -0.1153
     22 C14        -4.8061    3.2258    1.3145 C.ar      1 <0>        -0.1204
     23 C15        -4.9742    1.8542    1.3487 C.ar      1 <0>        -0.1156
     24 C16        -3.9683    1.0467    1.8457 C.ar      1 <0>        -0.1196
     25 C17         1.5501    0.0783    2.7600 C.3       1 <0>         0.0670
     26 C18         2.7569   -0.8447    2.9413 C.3       1 <0>        -0.1806
     27 C19         2.0083   -0.3147    4.1659 C.3       1 <0>        -0.1853
     28 C20        -2.8540   -5.6358    2.4804 C.2       1 <0>         0.5222
     29 O4         -3.6636   -6.3935    1.9630 O.co2     1 <0>        -0.6488
     30 O5         -2.5432   -5.7818    3.6547 O.co2     1 <0>        -0.6319
     31 N3         -1.7437   -3.8890   -1.7846 N.4       1 <0>        -0.6265
     32 H4          2.3349    0.3015   -1.1480 H         1 <0>         0.1005
     33 H5          0.9486    0.2000   -2.2598 H         1 <0>         0.0926
     34 H6          0.7543    0.9600   -0.6620 H         1 <0>         0.0910
     35 H7         -1.1073   -0.9343   -0.8653 H         1 <0>         0.4071
     36 H8         -3.3262   -5.1145    0.0052 H         1 <0>         0.1661
     37 H9         -0.3157    1.2320    1.2927 H         1 <0>         0.0869
     38 H10        -1.3094   -0.2079    0.9648 H         1 <0>         0.0771
     39 H11        -2.1419   -0.1653    3.3001 H         1 <0>         0.0776
     40 H12        -1.1482    1.2746    3.6281 H         1 <0>         0.0856
     41 H13        -1.7132    3.4241    2.6460 H         1 <0>         0.1223
     42 H14        -3.5021    4.8619    1.7540 H         1 <0>         0.1234
     43 H15        -5.5909    3.8565    0.9237 H         1 <0>         0.1226
     44 H16        -5.8904    1.4132    0.9848 H         1 <0>         0.1231
     45 H17        -4.0982   -0.0252    1.8691 H         1 <0>         0.1192
     46 H18         1.7425    1.1009    2.4355 H         1 <0>         0.1296
     47 H19         2.6279   -1.8972    2.6891 H         1 <0>         0.1358
     48 H20         3.7435   -0.4293    2.7359 H         1 <0>         0.0910
     49 H21         2.5024    0.4493    4.7662 H         1 <0>         0.0980
     50 H22         1.3868   -1.0186    4.7194 H         1 <0>         0.0991
     51 H23        -1.0589   -4.6234   -1.6853 H         1 <0>         0.4372
     52 H24        -2.5825   -4.2654   -2.2003 H         1 <0>         0.4404
     53 H25        -1.3726   -3.1609   -2.3763 H         1 <0>         0.4261
@<TRIPOS>BOND
     1    1    2 1
     2    1   32 1
     3    1   33 1
     4    1   34 1
     5    2    3 2
     6    2    4 am
     7    4    5 1
     8    4   35 1
     9    5    6 1
    10    5   12 1
    11    5    7 1
    12    7    8 1
    13    7    9 1
    14    7   31 1
    15    9   10 2
    16    9   36 1
    17   10   11 1
    18   10   28 1
    19   11   12 1
    20   12   13 1
    21   12   14 1
    22   14   15 2
    23   14   16 am
    24   16   17 1
    25   16   25 1
    26   17   18 1
    27   17   37 1
    28   17   38 1
    29   18   19 1
    30   18   39 1
    31   18   40 1
    32   19   24 ar
    33   19   20 ar
    34   20   21 ar
    35   20   41 1
    36   21   22 ar
    37   21   42 1
    38   22   23 ar
    39   22   43 1
    40   23   24 ar
    41   23   44 1
    42   24   45 1
    43   25   27 1
    44   25   26 1
    45   25   46 1
    46   26   27 1
    47   26   47 1
    48   26   48 1
    49   27   49 1
    50   27   50 1
    51   28   29 2
    52   28   30 1
    53   31   51 1
    54   31   52 1
    55   31   53 1
@<TRIPOS>MOLECULE
CHEMBL442774__1
   52    54     0     0     0
SMALL
USER_CHARGES

@<TRIPOS>ATOM
      1 C1         -3.2381   -2.2884   -7.1467 C.3       1 <0>        -0.1708
      2 C2         -3.0557   -3.2387   -5.9914 C.2       1 <0>         0.5052
      3 O1         -2.5176   -4.3112   -6.1676 O.2       1 <0>        -0.5187
      4 N1         -3.4907   -2.8969   -4.7624 N.am      1 <0>        -0.7313
      5 C3         -3.2053   -3.7642   -3.6168 C.3       1 <0>         0.1246
      6 H1         -2.3003   -4.3407   -3.8088 H         1 <0>         0.1212
      7 C4         -4.3837   -4.7151   -3.3824 C.3       1 <0>         0.1349
      8 H2         -5.3166   -4.1521   -3.4124 H         1 <0>         0.0360
      9 C5         -4.2374   -5.3722   -2.0368 C.2       1 <0>        -0.2582
     10 C6         -3.4352   -4.8903   -1.0971 C.2       1 <0>         0.0448
     11 O2         -2.6796   -3.7785   -1.2704 O.3       1 <0>        -0.2656
     12 C7         -3.0171   -2.9104   -2.3555 C.3       1 <0>         0.0590
     13 H3         -3.9433   -2.3827   -2.1276 H         1 <0>         0.0838
     14 C8         -1.9064   -1.9161   -2.5763 C.2       1 <0>         0.5344
     15 O3         -0.7537   -2.2428   -2.3881 O.2       1 <0>        -0.4912
     16 N2         -2.1941   -0.6638   -2.9831 N.am      1 <0>        -0.5847
     17 C9         -3.5898   -0.2368   -3.1084 C.3       1 <0>         0.1147
     18 C10        -4.0673    0.3435   -1.7757 C.3       1 <0>        -0.1055
     19 C11        -5.5031    0.7828   -1.9046 C.ar      1 <0>        -0.0811
     20 C12        -5.7980    2.0702   -2.3125 C.ar      1 <0>        -0.1153
     21 C13        -7.1150    2.4732   -2.4308 C.ar      1 <0>        -0.1203
     22 C14        -8.1371    1.5885   -2.1416 C.ar      1 <0>        -0.1236
     23 C15        -7.8422    0.3008   -1.7346 C.ar      1 <0>        -0.1150
     24 C16        -6.5252   -0.1035   -1.6205 C.ar      1 <0>        -0.1143
     25 C17        -1.1110    0.2704   -3.2998 C.3       1 <0>         0.0703
     26 C18         0.2946   -0.3093   -3.4708 C.3       1 <0>        -0.1941
     27 C19        -0.0485    0.5107   -2.2255 C.3       1 <0>        -0.1867
     28 C20        -3.3624   -5.5945    0.1927 C.2       1 <0>         0.5367
     29 O4         -4.0331   -6.6007    0.3790 O.co2     1 <0>        -0.6665
     30 O5         -2.6312   -5.1738    1.0790 O.co2     1 <0>        -0.6637
     31 N3         -4.3988   -5.7440   -4.4308 N.3       1 <0>        -0.8255
     32 H4         -4.1522   -2.5409   -7.6841 H         1 <0>         0.0926
     33 H5         -3.3081   -1.2679   -6.7701 H         1 <0>         0.0756
     34 H6         -2.3858   -2.3690   -7.8214 H         1 <0>         0.0945
     35 H7         -3.9928   -2.0765   -4.6365 H         1 <0>         0.3933
     36 H8         -4.8055   -6.2669   -1.8288 H         1 <0>         0.1388
     37 H9         -3.6687    0.5240   -3.8850 H         1 <0>         0.0893
     38 H10        -4.2093   -1.0932   -3.3746 H         1 <0>         0.0745
     39 H11        -3.9884   -0.4173   -0.9991 H         1 <0>         0.0823
     40 H12        -3.4478    1.1999   -1.5095 H         1 <0>         0.0847
     41 H13        -4.9995    2.7614   -2.5384 H         1 <0>         0.1213
     42 H14        -7.3454    3.4793   -2.7487 H         1 <0>         0.1203
     43 H15        -9.1661    1.9036   -2.2333 H         1 <0>         0.1199
     44 H16        -8.6407   -0.3903   -1.5084 H         1 <0>         0.1229
     45 H17        -6.2948   -1.1107   -1.3061 H         1 <0>         0.1243
     46 H18        -1.3879    1.1145   -3.9315 H         1 <0>         0.1286
     47 H19         0.4134   -1.3858   -3.3476 H         1 <0>         0.1418
     48 H20         0.9427    0.1533   -4.2152 H         1 <0>         0.0885
     49 H21         0.3739    1.5127   -2.1506 H         1 <0>         0.0952
     50 H22        -0.1553   -0.0263   -1.2830 H         1 <0>         0.0988
     51 H23        -5.1675   -6.3840   -4.2983 H         1 <0>         0.3417
     52 H24        -4.4311   -5.3251   -5.3482 H         1 <0>         0.3379
@<TRIPOS>BOND
     1    1    2 1
     2    1   32 1
     3    1   33 1
     4    1   34 1
     5    2    3 2
     6    2    4 am
     7    4    5 1
     8    4   35 1
     9    5    6 1
    10    5   12 1
    11    5    7 1
    12    7    8 1
    13    7    9 1
    14    7   31 1
    15    9   10 2
    16    9   36 1
    17   10   11 1
    18   10   28 1
    19   11   12 1
    20   12   13 1
    21   12   14 1
    22   14   15 2
    23   14   16 am
    24   16   17 1
    25   16   25 1
    26   17   18 1
    27   17   37 1
    28   17   38 1
    29   18   19 1
    30   18   39 1
    31   18   40 1
    32   19   24 ar
    33   19   20 ar
    34   20   21 ar
    35   20   41 1
    36   21   22 ar
    37   21   42 1
    38   22   23 ar
    39   22   43 1
    40   23   24 ar
    41   23   44 1
    42   24   45 1
    43   25   27 1
    44   25   26 1
    45   25   46 1
    46   26   27 1
    47   26   47 1
    48   26   48 1
    49   27   49 1
    50   27   50 1
    51   28   29 2
    52   28   30 1
    53   31   51 1
    54   31   52 1
@<TRIPOS>MOLECULE
CHEMBL54479
   42    43     0     0     0
SMALL
USER_CHARGES

@<TRIPOS>ATOM
      1 C1         -0.0184    1.5028    0.0103 C.3       1 <0>        -0.1753
      2 C2          0.0021   -0.0041    0.0020 C.2       1 <0>         0.5094
      3 O1          0.0203   -0.6160    1.0489 O.2       1 <0>        -0.4920
      4 N1          0.0001   -0.6716   -1.1688 N.am      1 <0>        -0.7541
      5 C3          0.0199   -2.1365   -1.1769 C.3       1 <0>         0.1300
      6 H1          0.6217   -2.4990   -0.3435 H         1 <0>         0.1257
      7 C4          0.6159   -2.6363   -2.4986 C.3       1 <0>         0.0214
      8 H2         -0.0640   -2.4035   -3.3181 H         1 <0>         0.1501
      9 C5          0.8064   -4.1515   -2.4034 C.3       1 <0>        -0.0809
     10 C6         -0.4558   -4.8013   -1.9161 C.2       1 <0>        -0.1596
     11 C7         -1.4319   -4.1483   -1.3174 C.2       1 <0>        -0.1601
     12 C8         -1.4083   -2.6706   -1.0502 C.3       1 <0>         0.1199
     13 H3         -2.0486   -2.1649   -1.7730 H         1 <0>         0.0739
     14 O2         -1.8942   -2.4155    0.2692 O.3       1 <0>        -0.3425
     15 C9         -3.3085   -2.2241    0.3408 C.3       1 <0>         0.0833
     16 C10        -3.6449   -0.7227    0.2303 C.3       1 <0>        -0.1423
     17 C11        -4.8378   -0.5284    1.1990 C.3       1 <0>        -0.1235
     18 C12        -4.4733   -1.4603    2.3813 C.3       1 <0>        -0.1223
     19 C13        -3.8352   -2.6931    1.7085 C.3       1 <0>        -0.1238
     20 C14        -0.6124   -6.2459   -2.1181 C.2       1 <0>         0.5110
     21 O3         -1.6277   -6.8110   -1.7342 O.co2     1 <0>        -0.6717
     22 O4          0.2724   -6.8860   -2.6705 O.co2     1 <0>        -0.6871
     23 N2          1.9120   -1.9858   -2.7328 N.4       1 <0>        -0.6301
     24 H4          1.0042    1.8801    0.0026 H         1 <0>         0.0952
     25 H5         -0.5455    1.8639   -0.8728 H         1 <0>         0.0806
     26 H6         -0.5286    1.8543    0.9071 H         1 <0>         0.0990
     27 H7         -0.0145   -0.1822   -2.0061 H         1 <0>         0.3951
     28 H8          1.0595   -4.5464   -3.3874 H         1 <0>         0.1111
     29 H9          1.6172   -4.3708   -1.7088 H         1 <0>         0.0960
     30 H10        -2.2979   -4.7086   -0.9973 H         1 <0>         0.1352
     31 H11        -3.8009   -2.7777   -0.4587 H         1 <0>         0.0668
     32 H12        -2.7951   -0.1171    0.5454 H         1 <0>         0.0717
     33 H13        -3.9366   -0.4711   -0.7894 H         1 <0>         0.0609
     34 H14        -4.9019    0.5082    1.5298 H         1 <0>         0.0674
     35 H15        -5.7704   -0.8442    0.7315 H         1 <0>         0.0688
     36 H16        -3.7573   -0.9738    3.0437 H         1 <0>         0.0673
     37 H17        -5.3696   -1.7470    2.9313 H         1 <0>         0.0684
     38 H18        -4.5838   -3.4736    1.5726 H         1 <0>         0.0745
     39 H19        -3.0121   -3.0667    2.3175 H         1 <0>         0.0804
     40 H20         2.5415   -2.2080   -1.9762 H         1 <0>         0.4355
     41 H21         2.3019   -2.3163   -3.6028 H         1 <0>         0.4403
     42 H22         1.7829   -0.9862   -2.7803 H         1 <0>         0.4266
@<TRIPOS>BOND
     1    1    2 1
     2    1   24 1
     3    1   25 1
     4    1   26 1
     5    2    3 2
     6    2    4 am
     7    4    5 1
     8    4   27 1
     9    5    6 1
    10    5   12 1
    11    5    7 1
    12    7    8 1
    13    7    9 1
    14    7   23 1
    15    9   10 1
    16    9   28 1
    17    9   29 1
    18   10   11 2
    19   10   20 1
    20   11   12 1
    21   11   30 1
    22   12   13 1
    23   12   14 1
    24   14   15 1
    25   15   19 1
    26   15   16 1
    27   15   31 1
    28   16   17 1
    29   16   32 1
    30   16   33 1
    31   17   18 1
    32   17   34 1
    33   17   35 1
    34   18   19 1
    35   18   36 1
    36   18   37 1
    37   19   38 1
    38   19   39 1
    39   20   21 2
    40   20   22 1
    41   23   40 1
    42   23   41 1
    43   23   42 1
@<TRIPOS>MOLECULE
CHEMBL373336
   45    46     0     0     0
SMALL
USER_CHARGES

@<TRIPOS>ATOM
      1 C1         -0.2950    1.3719   -1.7091 C.3       1 <0>        -0.1564
      2 C2         -0.2437   -0.1454   -1.8993 C.3       1 <0>        -0.0909
      3 C3         -1.2921   -0.5657   -2.9313 C.3       1 <0>        -0.1515
      4 C4          1.1472   -0.5510   -2.3910 C.3       1 <0>        -0.1378
      5 C5          2.1882   -0.1928   -1.3285 C.3       1 <0>         0.1249
      6 H1          1.8816   -0.6033   -0.3664 H         1 <0>         0.1261
      7 C6          3.5443   -0.7802   -1.7247 C.3       1 <0>         0.0242
      8 H2          3.8521   -0.3837   -2.6923 H         1 <0>         0.1387
      9 C7          4.5982   -0.4342   -0.6566 C.3       1 <0>        -0.0072
     10 H3          4.1501    0.1633    0.1373 H         1 <0>         0.1304
     11 C8          5.0720   -1.7966   -0.1006 C.3       1 <0>        -0.1059
     12 C9          3.8964   -2.7424   -0.4529 C.3       1 <0>        -0.0406
     13 H4          3.0927   -2.6455    0.2770 H         1 <0>         0.1387
     14 N1          3.4548   -2.2551   -1.7901 N.4       1 <0>        -0.4888
     15 C10         4.3692   -4.1710   -0.5345 C.2       1 <0>         0.4980
     16 O1          4.6772   -4.7701    0.4817 O.co2     1 <0>        -0.6331
     17 O2          4.4436   -4.7276   -1.6167 O.co2     1 <0>        -0.6688
     18 C11         5.7516    0.3079   -1.2811 C.2       1 <0>         0.0310
     19 N2          6.5536   -0.0905   -2.2367 N.2       1 <0>        -0.5047
     20 C12         7.5266    0.6797   -2.6813 C.2       1 <0>         0.0348
     21 C13         7.6573    1.9012   -2.1034 C.2       1 <0>        -0.2168
     22 S1          6.3170    1.8526   -0.9245 S.3       1 <0>         0.1293
     23 N3          2.2988    1.2643   -1.2248 N.am      1 <0>        -0.7202
     24 C14         2.2269    1.8614   -0.0187 C.2       1 <0>         0.5163
     25 O3          2.0908    1.1910    0.9828 O.2       1 <0>        -0.5289
     26 C15         2.3158    3.3622    0.0856 C.3       1 <0>        -0.1765
     27 H5          0.3441    1.6551   -0.8728 H         1 <0>         0.0636
     28 H6          0.0550    1.8639   -2.6166 H         1 <0>         0.0545
     29 H7         -1.3206    1.6777   -1.5025 H         1 <0>         0.0552
     30 H8         -0.4512   -0.6378   -0.9493 H         1 <0>         0.0761
     31 H9         -1.0847   -0.0733   -3.8813 H         1 <0>         0.0567
     32 H10        -1.2556   -1.6467   -3.0668 H         1 <0>         0.0574
     33 H11        -2.2830   -0.2768   -2.5810 H         1 <0>         0.0607
     34 H12         1.1690   -1.6254   -2.5734 H         1 <0>         0.0744
     35 H13         1.3746   -0.0207   -3.3157 H         1 <0>         0.0859
     36 H14         5.9878   -2.1182   -0.5966 H         1 <0>         0.1033
     37 H15         5.2146   -1.7442    0.9788 H         1 <0>         0.1170
     38 H16         2.5032   -2.5383   -1.9697 H         1 <0>         0.4199
     39 H17         8.1897    0.3537   -3.4689 H         1 <0>         0.1783
     40 H18         8.3716    2.6861   -2.3037 H         1 <0>         0.2012
     41 H19         2.4236    1.7994   -2.0242 H         1 <0>         0.4092
     42 H20         2.4355    3.7892   -0.9101 H         1 <0>         0.0800
     43 H21         1.4038    3.7495    0.5398 H         1 <0>         0.1021
     44 H22         3.1725    3.6334    0.7026 H         1 <0>         0.1018
     45 H23         4.0664   -2.6092   -2.5102 H         1 <0>         0.4386
@<TRIPOS>BOND
     1    1    2 1
     2    1   27 1
     3    1   28 1
     4    1   29 1
     5    2    3 1
     6    2    4 1
     7    2   30 1
     8    3   31 1
     9    3   32 1
    10    3   33 1
    11    4    5 1
    12    4   34 1
    13    4   35 1
    14    5    6 1
    15    5    7 1
    16    5   23 1
    17    7    8 1
    18    7   14 1
    19    7    9 1
    20    9   10 1
    21    9   11 1
    22    9   18 1
    23   11   12 1
    24   11   36 1
    25   11   37 1
    26   12   13 1
    27   12   14 1
    28   12   15 1
    29   14   38 1
    30   14   45 1
    31   15   16 2
    32   15   17 1
    33   18   22 1
    34   18   19 2
    35   19   20 1
    36   20   21 2
    37   20   39 1
    38   21   22 1
    39   21   40 1
    40   23   24 am
    41   23   41 1
    42   24   25 2
    43   24   26 1
    44   26   42 1
    45   26   43 1
    46   26   44 1
@<TRIPOS>MOLECULE
CHEMBL373336__1
   44    45     0     0     0
SMALL
USER_CHARGES

@<TRIPOS>ATOM
      1 C1          0.8737   -0.2130   -1.2318 C.3       1 <0>        -0.1457
      2 C2         -0.0315   -0.0638   -0.0075 C.3       1 <0>        -0.0903
      3 C3         -1.3313   -0.8377   -0.2369 C.3       1 <0>        -0.1508
      4 C4          0.6827   -0.6207    1.2257 C.3       1 <0>        -0.1342
      5 C5         -0.1607   -0.3438    2.4719 C.3       1 <0>         0.1208
      6 H1         -1.1500   -0.7837    2.3462 H         1 <0>         0.0872
      7 C6          0.5199   -0.9604    3.6956 C.3       1 <0>         0.0723
      8 H2          1.5153   -0.5343    3.8208 H         1 <0>         0.1094
      9 C7         -0.3260   -0.6963    4.9551 C.3       1 <0>        -0.0066
     10 H3         -1.2138   -0.1177    4.7000 H         1 <0>         0.0887
     11 C8         -0.7283   -2.0966    5.4722 C.3       1 <0>        -0.0863
     12 C9         -0.5870   -2.9855    4.2111 C.3       1 <0>         0.0063
     13 H4         -1.4664   -2.8918    3.5739 H         1 <0>         0.0389
     14 N1          0.6166   -2.4273    3.5327 N.3       1 <0>        -0.6182
     15 C10        -0.3630   -4.4248    4.5973 C.2       1 <0>         0.5040
     16 O1         -1.3156   -5.1700    4.7514 O.co2     1 <0>        -0.7085
     17 O2          0.7708   -4.8442    4.7556 O.co2     1 <0>        -0.6685
     18 C11         0.4916    0.0312    5.9911 C.2       1 <0>         0.1026
     19 N2          1.6020   -0.3540    6.5689 N.2       1 <0>        -0.4993
     20 C12         2.2062    0.4001    7.4653 C.2       1 <0>         0.0468
     21 C13         1.6246    1.5909    7.7602 C.2       1 <0>        -0.2461
     22 S1          0.2029    1.5390    6.6810 S.3       1 <0>         0.0537
     23 N3         -0.2901    1.1030    2.6624 N.am      1 <0>        -0.7248
     24 C14         0.8104    1.8605    2.8391 C.2       1 <0>         0.5087
     25 O3          1.9080    1.3445    2.8405 O.2       1 <0>        -0.5295
     26 C15         0.6773    3.3488    3.0351 C.3       1 <0>        -0.1767
     27 H5          1.1727   -1.2558   -1.3378 H         1 <0>         0.0559
     28 H6          0.3330    0.1025   -2.1241 H         1 <0>         0.0502
     29 H7          1.7605    0.4082   -1.1058 H         1 <0>         0.0519
     30 H8         -0.2593    0.9904    0.1498 H         1 <0>         0.0651
     31 H9         -1.1035   -1.8920   -0.3941 H         1 <0>         0.0573
     32 H10        -1.9762   -0.7315    0.6354 H         1 <0>         0.0532
     33 H11        -1.8401   -0.4410   -1.1155 H         1 <0>         0.0506
     34 H12         0.8199   -1.6960    1.1115 H         1 <0>         0.0746
     35 H13         1.6550   -0.1394    1.3307 H         1 <0>         0.0895
     36 H14        -0.0477   -2.4284    6.2563 H         1 <0>         0.0840
     37 H15        -1.7581   -2.0946    5.8293 H         1 <0>         0.0681
     38 H16         0.6357   -2.6822    2.5566 H         1 <0>         0.3291
     39 H17         3.1218    0.0850    7.9437 H         1 <0>         0.1687
     40 H18         1.9373    2.3585    8.4527 H         1 <0>         0.1912
     41 H19        -1.1680    1.5157    2.6613 H         1 <0>         0.3974
     42 H20         0.0765    3.5461    3.9229 H         1 <0>         0.0861
     43 H21         1.6666    3.7887    3.1608 H         1 <0>         0.0888
     44 H22         0.1924    3.7881    2.1633 H         1 <0>         0.0841
@<TRIPOS>BOND
     1    1    2 1
     2    1   27 1
     3    1   28 1
     4    1   29 1
     5    2    3 1
     6    2    4 1
     7    2   30 1
     8    3   31 1
     9    3   32 1
    10    3   33 1
    11    4    5 1
    12    4   34 1
    13    4   35 1
    14    5    6 1
    15    5    7 1
    16    5   23 1
    17    7    8 1
    18    7   14 1
    19    7    9 1
    20    9   10 1
    21    9   11 1
    22    9   18 1
    23   11   12 1
    24   11   36 1
    25   11   37 1
    26   12   13 1
    27   12   14 1
    28   12   15 1
    29   14   38 1
    30   15   16 2
    31   15   17 1
    32   18   22 1
    33   18   19 2
    34   19   20 1
    35   20   21 2
    36   20   39 1
    37   21   22 1
    38   21   40 1
    39   23   24 am
    40   23   41 1
    41   24   25 2
    42   24   26 1
    43   26   42 1
    44   26   43 1
    45   26   44 1
@<TRIPOS>MOLECULE
CHEMBL426810
   45    46     0     0     0
SMALL
USER_CHARGES

@<TRIPOS>ATOM
      1 C1         -0.2950    1.3723   -1.7090 C.3       1 <0>        -0.1564
      2 C2         -0.2440   -0.1450   -1.8988 C.3       1 <0>        -0.0908
      3 C3         -1.2927   -0.5655   -2.9305 C.3       1 <0>        -0.1511
      4 C4          1.1468   -0.5509   -2.3908 C.3       1 <0>        -0.1380
      5 C5          2.1881   -0.1928   -1.3285 C.3       1 <0>         0.1287
      6 H1          1.8816   -0.6033   -0.3664 H         1 <0>         0.1226
      7 C6          3.5440   -0.7803   -1.7251 C.3       1 <0>         0.0193
      8 H2          3.8516   -0.3838   -2.6927 H         1 <0>         0.1335
      9 C7          4.5982   -0.4344   -0.6572 C.3       1 <0>        -0.0246
     10 H3          4.1504    0.1631    0.1369 H         1 <0>         0.1261
     11 C8          5.0720   -1.7969   -0.1013 C.3       1 <0>        -0.1140
     12 C9          3.8963   -2.7425   -0.4534 C.3       1 <0>        -0.0420
     13 H4          3.0927   -2.6456    0.2767 H         1 <0>         0.1378
     14 N1          3.4544   -2.2552   -1.7904 N.4       1 <0>        -0.4916
     15 C10         4.3689   -4.1711   -0.5351 C.2       1 <0>         0.4968
     16 O1          4.6771   -4.7704    0.4810 O.co2     1 <0>        -0.6317
     17 O2          4.4431   -4.7278   -1.6173 O.co2     1 <0>        -0.6714
     18 C11         5.7515    0.3077   -1.2819 C.2       1 <0>         0.0563
     19 C12         6.7814   -0.3497   -1.8738 C.2       1 <0>        -0.2254
     20 S1          7.7898    1.0260   -2.4020 S.3       1 <0>         0.1369
     21 C13         6.8101    2.2662   -1.8232 C.2       1 <0>         0.0294
     22 N2          5.8039    1.6247   -1.2835 N.2       1 <0>        -0.5052
     23 N3          2.2988    1.2643   -1.2248 N.am      1 <0>        -0.7123
     24 C14         2.2269    1.8614   -0.0187 C.2       1 <0>         0.5258
     25 O3          2.0908    1.1910    0.9828 O.2       1 <0>        -0.5364
     26 C15         2.3158    3.3622    0.0856 C.3       1 <0>        -0.1704
     27 H5          0.3442    1.6556   -0.8728 H         1 <0>         0.0647
     28 H6          0.0549    1.8641   -2.6167 H         1 <0>         0.0541
     29 H7         -1.3206    1.6783   -1.5023 H         1 <0>         0.0544
     30 H8         -0.4512   -0.6372   -0.9486 H         1 <0>         0.0754
     31 H9         -1.0854   -0.0732   -3.8806 H         1 <0>         0.0564
     32 H10        -1.2563   -1.6464   -3.0657 H         1 <0>         0.0569
     33 H11        -2.2834   -0.2763   -2.5800 H         1 <0>         0.0604
     34 H12         1.1684   -1.6253   -2.5731 H         1 <0>         0.0722
     35 H13         1.3741   -0.0207   -3.3156 H         1 <0>         0.0843
     36 H14         5.9876   -2.1186   -0.5975 H         1 <0>         0.0964
     37 H15         5.2149   -1.7445    0.9780 H         1 <0>         0.1160
     38 H16         2.5027   -2.5383   -1.9698 H         1 <0>         0.4201
     39 H17         6.9454   -1.4106   -1.9923 H         1 <0>         0.2002
     40 H18         6.9703    3.3324   -1.8856 H         1 <0>         0.2210
     41 H19         2.4237    1.7994   -2.0242 H         1 <0>         0.4079
     42 H20         2.4355    3.7892   -0.9101 H         1 <0>         0.0774
     43 H21         1.4038    3.7495    0.5398 H         1 <0>         0.0968
     44 H22         3.1725    3.6334    0.7026 H         1 <0>         0.0999
     45 H23         4.0658   -2.6093   -2.5107 H         1 <0>         0.4336
@<TRIPOS>BOND
     1    1    2 1
     2    1   27 1
     3    1   28 1
     4    1   29 1
     5    2    3 1
     6    2    4 1
     7    2   30 1
     8    3   31 1
     9    3   32 1
    10    3   33 1
    11    4    5 1
    12    4   34 1
    13    4   35 1
    14    5    6 1
    15    5    7 1
    16    5   23 1
    17    7    8 1
    18    7   14 1
    19    7    9 1
    20    9   10 1
    21    9   11 1
    22    9   18 1
    23   11   12 1
    24   11   36 1
    25   11   37 1
    26   12   13 1
    27   12   14 1
    28   12   15 1
    29   14   38 1
    30   14   45 1
    31   15   16 2
    32   15   17 1
    33   18   22 1
    34   18   19 2
    35   19   20 1
    36   19   39 1
    37   20   21 1
    38   21   22 2
    39   21   40 1
    40   23   24 am
    41   23   41 1
    42   24   25 2
    43   24   26 1
    44   26   42 1
    45   26   43 1
    46   26   44 1
@<TRIPOS>MOLECULE
CHEMBL195288
   46    47     0     0     0
SMALL
USER_CHARGES

@<TRIPOS>ATOM
      1 C1          1.6108    1.3850    0.6275 C.3       1 <0>        -0.1569
      2 C2          1.7733   -0.1324    0.7366 C.3       1 <0>        -0.0907
      3 C3          3.1974   -0.5229    0.3360 C.3       1 <0>        -0.1513
      4 C4          1.5107   -0.5712    2.1786 C.3       1 <0>        -0.1380
      5 C5          0.0648   -0.2430    2.5562 C.3       1 <0>         0.1291
      6 H1         -0.6089   -0.6490    1.8017 H         1 <0>         0.1241
      7 C6         -0.2602   -0.8628    3.9168 C.3       1 <0>         0.0152
      8 H2          0.4179   -0.4707    4.6748 H         1 <0>         0.1367
      9 C7         -1.7172   -0.5471    4.3025 C.3       1 <0>        -0.0115
     10 H3         -2.1904    0.0586    3.5297 H         1 <0>         0.1395
     11 C8         -2.4143   -1.9230    4.4077 C.3       1 <0>        -0.1154
     12 C9         -1.5071   -2.8377    3.5469 C.3       1 <0>        -0.0423
     13 H4         -1.7393   -2.7233    2.4881 H         1 <0>         0.1423
     14 N1         -0.1359   -2.3347    3.8425 N.4       1 <0>        -0.4926
     15 C10        -1.6503   -4.2774    3.9685 C.2       1 <0>         0.4959
     16 O1         -2.6750   -4.8877    3.7153 O.co2     1 <0>        -0.6294
     17 O2         -0.7415   -4.8319    4.5627 O.co2     1 <0>        -0.6706
     18 C11        -1.7641    0.1680    5.6282 C.2       1 <0>         0.1922
     19 N2         -1.7595   -0.4236    6.8422 N.pl3     1 <0>        -0.5632
     20 H5         -1.7254   -1.3769    7.0178 H         1 <0>         0.4213
     21 C12        -1.8114    0.5735    7.7786 C.2       1 <0>        -0.0366
     22 C13        -1.8459    1.7392    7.1051 C.2       1 <0>        -0.0257
     23 N3         -1.8102    1.4617    5.7934 N.2       1 <0>        -0.4658
     24 N4         -0.1029    1.2106    2.6292 N.am      1 <0>        -0.7134
     25 C14        -1.1209    1.8051    1.9760 C.2       1 <0>         0.5257
     26 O3         -1.9097    1.1347    1.3440 O.2       1 <0>        -0.5369
     27 C15        -1.2790    3.3027    2.0308 C.3       1 <0>        -0.1714
     28 H6          2.2145    1.8711    1.3940 H         1 <0>         0.0548
     29 H7          1.9394    1.7157   -0.3577 H         1 <0>         0.0547
     30 H8          0.5628    1.6492    0.7686 H         1 <0>         0.0652
     31 H9          1.0617   -0.6227    0.0723 H         1 <0>         0.0757
     32 H10         3.9091   -0.0326    1.0003 H         1 <0>         0.0566
     33 H11         3.3132   -1.6040    0.4137 H         1 <0>         0.0565
     34 H12         3.3845   -0.2104   -0.6913 H         1 <0>         0.0607
     35 H13         1.6746   -1.6451    2.2672 H         1 <0>         0.0718
     36 H14         2.1899   -0.0435    2.8483 H         1 <0>         0.0853
     37 H15        -2.4371   -2.2657    5.4421 H         1 <0>         0.0852
     38 H16        -3.4212   -1.8779    3.9928 H         1 <0>         0.1225
     39 H17         0.4995   -2.5934    3.1025 H         1 <0>         0.4225
     40 H18        -1.8228    0.4492    8.8514 H         1 <0>         0.1826
     41 H19        -1.8906    2.7248    7.5444 H         1 <0>         0.1754
     42 H20         0.5186    1.7451    3.1477 H         1 <0>         0.4098
     43 H21        -0.4831    3.7300    2.6408 H         1 <0>         0.0790
     44 H22        -1.2226    3.7112    1.0218 H         1 <0>         0.0971
     45 H23        -2.2457    3.5502    2.4695 H         1 <0>         0.1018
     46 H24         0.1879   -2.7016    4.7249 H         1 <0>         0.4324
@<TRIPOS>BOND
     1    1    2 1
     2    1   28 1
     3    1   29 1
     4    1   30 1
     5    2    3 1
     6    2    4 1
     7    2   31 1
     8    3   32 1
     9    3   33 1
    10    3   34 1
    11    4    5 1
    12    4   35 1
    13    4   36 1
    14    5    6 1
    15    5    7 1
    16    5   24 1
    17    7    8 1
    18    7   14 1
    19    7    9 1
    20    9   10 1
    21    9   11 1
    22    9   18 1
    23   11   12 1
    24   11   37 1
    25   11   38 1
    26   12   13 1
    27   12   14 1
    28   12   15 1
    29   14   39 1
    30   14   46 1
    31   15   16 2
    32   15   17 1
    33   18   23 2
    34   18   19 1
    35   19   20 1
    36   19   21 1
    37   21   22 2
    38   21   40 1
    39   22   23 1
    40   22   41 1
    41   24   25 am
    42   24   42 1
    43   25   26 2
    44   25   27 1
    45   27   43 1
    46   27   44 1
    47   27   45 1
@<TRIPOS>MOLECULE
CHEMBL195288__1
   47    48     0     0     0
SMALL
USER_CHARGES

@<TRIPOS>ATOM
      1 C1          0.8739   -0.2127   -1.2318 C.3       1 <0>        -0.1537
      2 C2         -0.0314   -0.0636   -0.0074 C.3       1 <0>        -0.0875
      3 C3         -1.3313   -0.8373   -0.2370 C.3       1 <0>        -0.1597
      4 C4          0.6827   -0.6207    1.2257 C.3       1 <0>        -0.1525
      5 C5         -0.1607   -0.3438    2.4719 C.3       1 <0>         0.1350
      6 H1         -1.1500   -0.7837    2.3462 H         1 <0>         0.1258
      7 C6          0.5199   -0.9604    3.6956 C.3       1 <0>         0.0019
      8 H2          1.5153   -0.5343    3.8208 H         1 <0>         0.1505
      9 C7         -0.3260   -0.6963    4.9551 C.3       1 <0>        -0.0531
     10 H3         -1.2138   -0.1177    4.7000 H         1 <0>         0.1578
     11 C8         -0.7283   -2.0966    5.4722 C.3       1 <0>        -0.1149
     12 C9         -0.5870   -2.9855    4.2111 C.3       1 <0>        -0.0445
     13 H4         -1.4664   -2.8918    3.5739 H         1 <0>         0.1498
     14 N1          0.6166   -2.4273    3.5327 N.4       1 <0>        -0.4928
     15 C10        -0.3630   -4.4248    4.5973 C.2       1 <0>         0.4922
     16 O1         -1.2754   -5.0766    5.0761 O.co2     1 <0>        -0.6173
     17 O2          0.7306   -4.9376    4.4308 O.co2     1 <0>        -0.6589
     18 C11         0.4916    0.0312    5.9911 C.cat     1 <0>         0.3027
     19 N2          1.7861   -0.1372    6.2080 N.pl3     1 <0>        -0.4806
     20 H5          2.3680   -0.7481    5.7292 H         1 <0>         0.4620
     21 C12         2.1573    0.6870    7.2098 C.2       1 <0>         0.0332
     22 C13         1.0593    1.3639    7.6009 C.2       1 <0>         0.0277
     23 N3          0.0337    0.9472    6.8292 N.pl3     1 <0>        -0.4721
     24 N4         -0.2901    1.1030    2.6624 N.am      1 <0>        -0.7237
     25 C14         0.8104    1.8605    2.8391 C.2       1 <0>         0.5151
     26 O3          1.9080    1.3445    2.8405 O.2       1 <0>        -0.5362
     27 C15         0.6773    3.3488    3.0351 C.3       1 <0>        -0.1800
     28 H6          1.1727   -1.2556   -1.3379 H         1 <0>         0.0597
     29 H7          0.3332    0.1029   -2.1240 H         1 <0>         0.0646
     30 H8          1.7608    0.4083   -1.1057 H         1 <0>         0.0573
     31 H9         -0.2591    0.9907    0.1499 H         1 <0>         0.0752
     32 H10        -1.1036   -1.8916   -0.3943 H         1 <0>         0.0618
     33 H11        -1.9762   -0.7311    0.6352 H         1 <0>         0.0513
     34 H12        -1.8400   -0.4404   -1.1155 H         1 <0>         0.0672
     35 H13         0.8198   -1.6960    1.1114 H         1 <0>         0.0741
     36 H14         1.6551   -0.1396    1.3308 H         1 <0>         0.1047
     37 H15        -0.0477   -2.4284    6.2563 H         1 <0>         0.1041
     38 H16        -1.7581   -2.0946    5.8293 H         1 <0>         0.1381
     39 H17         0.6110   -2.6696    2.5532 H         1 <0>         0.4343
     40 H18         3.1505    0.7859    7.6222 H         1 <0>         0.2342
     41 H19         1.0101    2.1054    8.3846 H         1 <0>         0.2348
     42 H20        -1.1680    1.5157    2.6613 H         1 <0>         0.4183
     43 H21         0.5782    3.5679    4.0982 H         1 <0>         0.0936
     44 H22         1.5632    3.8477    2.6423 H         1 <0>         0.1053
     45 H23        -0.2060    3.7073    2.5064 H         1 <0>         0.0911
     46 H24         1.4567   -2.7716    3.9729 H         1 <0>         0.4362
     47 H25        -0.8819    1.2632    6.8814 H         1 <0>         0.4676
@<TRIPOS>BOND
     1    1    2 1
     2    1   28 1
     3    1   29 1
     4    1   30 1
     5    2    3 1
     6    2    4 1
     7    2   31 1
     8    3   32 1
     9    3   33 1
    10    3   34 1
    11    4    5 1
    12    4   35 1
    13    4   36 1
    14    5    6 1
    15    5    7 1
    16    5   24 1
    17    7    8 1
    18    7   14 1
    19    7    9 1
    20    9   10 1
    21    9   11 1
    22    9   18 1
    23   11   12 1
    24   11   37 1
    25   11   38 1
    26   12   13 1
    27   12   14 1
    28   12   15 1
    29   14   39 1
    30   14   46 1
    31   15   16 2
    32   15   17 1
    33   18   23 2
    34   18   19 1
    35   19   20 1
    36   19   21 1
    37   21   22 2
    38   21   40 1
    39   22   23 1
    40   22   41 1
    41   23   47 1
    42   24   25 am
    43   24   42 1
    44   25   26 2
    45   25   27 1
    46   27   43 1
    47   27   44 1
    48   27   45 1
@<TRIPOS>MOLECULE
CHEMBL195288__2
   46    47     0     0     0
SMALL
USER_CHARGES

@<TRIPOS>ATOM
      1 C1         -0.0187    1.5258    0.0104 C.3       1 <0>        -0.1498
      2 C2          0.0021   -0.0041    0.0020 C.3       1 <0>        -0.0888
      3 C3          0.7421   -0.5109    1.2415 C.3       1 <0>        -0.1435
      4 C4         -1.4333   -0.5336    0.0129 C.3       1 <0>        -0.1278
      5 C5         -1.4157   -2.0577   -0.1212 C.3       1 <0>         0.1123
      6 H1         -0.7891   -2.4841    0.6622 H         1 <0>         0.1037
      7 C6         -2.8406   -2.5981    0.0146 C.3       1 <0>         0.0658
      8 H2         -3.4765   -2.1664   -0.7583 H         1 <0>         0.0827
      9 C7         -2.8334   -4.1331   -0.1088 C.3       1 <0>        -0.0569
     10 H3         -1.8192   -4.4942   -0.2792 H         1 <0>         0.1285
     11 C8         -3.3662   -4.6497    1.2474 C.3       1 <0>        -0.0924
     12 C9         -3.0957   -3.4596    2.2019 C.3       1 <0>         0.0027
     13 H4         -2.0567   -3.4591    2.5314 H         1 <0>         0.0579
     14 N1         -3.3790   -2.2687    1.3522 N.3       1 <0>        -0.6219
     15 C10        -4.0272   -3.5048    3.3856 C.2       1 <0>         0.5015
     16 O1         -3.7023   -4.1076    4.3944 O.co2     1 <0>        -0.6874
     17 O2         -5.1058   -2.9387    3.3346 O.co2     1 <0>        -0.6673
     18 C11        -3.7393   -4.5719   -1.2304 C.cat     1 <0>         0.3402
     19 N2         -4.8727   -3.9847   -1.5794 N.pl3     1 <0>        -0.4808
     20 H5         -5.2606   -3.2018   -1.1581 H         1 <0>         0.4701
     21 C12        -5.3959   -4.6625   -2.6222 C.2       1 <0>         0.0155
     22 C13        -4.5559   -5.6784   -2.9032 C.2       1 <0>         0.0088
     23 N3         -3.5288   -5.6041   -2.0313 N.pl3     1 <0>        -0.4911
     24 N4         -0.8765   -2.4263   -1.4325 N.am      1 <0>        -0.7302
     25 C14         0.4560   -2.5245   -1.6099 C.2       1 <0>         0.5047
     26 O3          1.2086   -2.3077   -0.6839 O.2       1 <0>        -0.5171
     27 C15         1.0106   -2.9037   -2.9588 C.3       1 <0>        -0.1727
     28 H6          1.0039    1.9031    0.0027 H         1 <0>         0.0541
     29 H7         -0.5459    1.8868   -0.8726 H         1 <0>         0.0490
     30 H8         -0.5289    1.8773    0.9072 H         1 <0>         0.0556
     31 H9          0.5123   -0.3556   -0.8948 H         1 <0>         0.0721
     32 H10         0.7568   -1.6008    1.2356 H         1 <0>         0.0694
     33 H11         1.7647   -0.1336    1.2338 H         1 <0>         0.0497
     34 H12         0.2319   -0.1594    2.1383 H         1 <0>         0.0456
     35 H13        -1.9156   -0.2570    0.9504 H         1 <0>         0.0793
     36 H14        -1.9862   -0.1019   -0.8214 H         1 <0>         0.0668
     37 H15        -4.4338   -4.8609    1.1872 H         1 <0>         0.0834
     38 H16        -2.8144   -5.5336    1.5671 H         1 <0>         0.0911
     39 H17        -2.9384   -1.4415    1.7257 H         1 <0>         0.3502
     40 H18        -6.3176   -4.4335   -3.1365 H         1 <0>         0.2254
     41 H19        -4.6801   -6.4139   -3.6843 H         1 <0>         0.2249
     42 H20        -1.4784   -2.5997   -2.1731 H         1 <0>         0.3913
     43 H21         0.1896   -3.0580   -3.6590 H         1 <0>         0.0700
     44 H22         1.6547   -2.1041   -3.3247 H         1 <0>         0.0974
     45 H23         1.5887   -3.8233   -2.8685 H         1 <0>         0.0957
     46 H24        -2.7682   -6.2051   -1.9961 H         1 <0>         0.4625
@<TRIPOS>BOND
     1    1    2 1
     2    1   28 1
     3    1   29 1
     4    1   30 1
     5    2    3 1
     6    2    4 1
     7    2   31 1
     8    3   32 1
     9    3   33 1
    10    3   34 1
    11    4    5 1
    12    4   35 1
    13    4   36 1
    14    5    6 1
    15    5    7 1
    16    5   24 1
    17    7    8 1
    18    7   14 1
    19    7    9 1
    20    9   10 1
    21    9   11 1
    22    9   18 1
    23   11   12 1
    24   11   37 1
    25   11   38 1
    26   12   13 1
    27   12   14 1
    28   12   15 1
    29   14   39 1
    30   15   16 2
    31   15   17 1
    32   18   23 2
    33   18   19 1
    34   19   20 1
    35   19   21 1
    36   21   22 2
    37   21   40 1
    38   22   23 1
    39   22   41 1
    40   23   46 1
    41   24   25 am
    42   24   42 1
    43   25   26 2
    44   25   27 1
    45   27   43 1
    46   27   44 1
    47   27   45 1
@<TRIPOS>MOLECULE
CHEMBL301233
   61    62     0     0     0
SMALL
USER_CHARGES

@<TRIPOS>ATOM
      1 C1         -2.1972    1.5471   -1.1870 C.3       1 <0>        -0.1466
      2 C2         -1.9259    0.0464   -1.3098 C.3       1 <0>        -0.1347
      3 C3         -1.4511   -0.4981    0.0389 C.3       1 <0>        -0.1027
      4 C4         -1.2869   -2.0164   -0.0533 C.3       1 <0>         0.1493
      5 C5         -2.6376   -2.6599   -0.3825 C.3       1 <0>        -0.1332
      6 C6         -2.4972   -4.1832   -0.3362 C.3       1 <0>        -0.1199
      7 C7         -2.0862   -4.6167    1.0728 C.3       1 <0>        -0.1383
      8 C8         -0.7293   -3.9954    1.4184 C.3       1 <0>         0.0969
      9 N1         -0.8153   -2.5400    1.2359 N.am      1 <0>        -0.6031
     10 C9         -0.4681   -1.7013    2.2321 C.2       1 <0>         0.5035
     11 O1         -0.6383   -0.5071    2.1064 O.2       1 <0>        -0.4935
     12 C10         0.1314   -2.2474    3.5023 C.3       1 <0>         0.1305
     13 C11        -0.9626   -2.3902    4.5623 C.3       1 <0>        -0.1066
     14 H1         -1.4898   -1.4455    4.6949 H         1 <0>         0.1143
     15 C12        -1.9540   -3.5138    4.1702 C.3       1 <0>        -0.0917
     16 C13        -2.5629   -3.9238    5.5340 C.3       1 <0>        -0.1566
     17 C14        -1.3771   -3.8426    6.5175 C.3       1 <0>        -0.1134
     18 C15        -0.3591   -2.8641    5.9006 C.3       1 <0>         0.1189
     19 H2          0.5880   -3.3738    5.7235 H         1 <0>         0.1027
     20 N2         -0.1546   -1.7198    6.7921 N.pl3     1 <0>        -0.6372
     21 C16         0.7493   -1.7772    7.7295 C.cat     1 <0>         0.7324
     22 N3          1.5108   -2.9116    7.8815 N.pl3     1 <0>        -0.8143
     23 N4          0.9412   -0.7032    8.5661 N.pl3     1 <0>        -0.8219
     24 C17        -3.0999   -5.3305    5.4704 C.2       1 <0>         0.4968
     25 O2         -3.1097   -6.0252    6.4723 O.co2     1 <0>        -0.6943
     26 O3         -3.5247   -5.7737    4.4170 O.co2     1 <0>        -0.6812
     27 N5          1.1652   -1.3300    3.9881 N.am      1 <0>        -0.7298
     28 C18         0.8454   -0.0583    4.2995 C.2       1 <0>         0.4992
     29 O4         -0.2982    0.3267    4.1775 O.2       1 <0>        -0.4909
     30 C19         1.9089    0.8853    4.7992 C.3       1 <0>        -0.1752
     31 H3         -2.5355    1.9350   -2.1479 H         1 <0>         0.0506
     32 H4         -2.9679    1.7167   -0.4351 H         1 <0>         0.0528
     33 H5         -1.2816    2.0589   -0.8907 H         1 <0>         0.0508
     34 H6         -2.8415   -0.4653   -1.6062 H         1 <0>         0.0615
     35 H7         -1.1552   -0.1231   -2.0618 H         1 <0>         0.0555
     36 H8         -0.4944   -0.0442    0.2974 H         1 <0>         0.0806
     37 H9         -2.1864   -0.2581    0.8068 H         1 <0>         0.0748
     38 H10        -0.5645   -2.2592   -0.8326 H         1 <0>         0.0694
     39 H11        -3.3804   -2.3407    0.3484 H         1 <0>         0.0684
     40 H12        -2.9530   -2.3538   -1.3800 H         1 <0>         0.0749
     41 H13        -3.4508   -4.6438   -0.5942 H         1 <0>         0.0682
     42 H14        -1.7365   -4.4996   -1.0499 H         1 <0>         0.0603
     43 H15        -2.8342   -4.2790    1.7900 H         1 <0>         0.0836
     44 H16        -2.0091   -5.7033    1.1111 H         1 <0>         0.0809
     45 H17        -0.4783   -4.2194    2.4552 H         1 <0>         0.0886
     46 H18         0.0374   -4.4017    0.7587 H         1 <0>         0.0680
     47 H19         0.5752   -3.2230    3.3045 H         1 <0>         0.1107
     48 H20        -2.7257   -3.1321    3.5017 H         1 <0>         0.0797
     49 H21        -1.4271   -4.3523    3.7147 H         1 <0>         0.0842
     50 H22        -3.3488   -3.2272    5.8258 H         1 <0>         0.0735
     51 H23        -1.7171   -3.4659    7.4821 H         1 <0>         0.0712
     52 H24        -0.9247   -4.8269    6.6390 H         1 <0>         0.0929
     53 H25         1.3755   -3.6694    7.2912 H         1 <0>         0.4376
     54 H26         2.1835   -2.9544    8.5790 H         1 <0>         0.4337
     55 H27         0.4038    0.0972    8.4588 H         1 <0>         0.4357
     56 H28         1.6138   -0.7459    9.2636 H         1 <0>         0.4346
     57 H29         2.0799   -1.6379    4.0857 H         1 <0>         0.4017
     58 H30         2.6883    0.9871    4.0440 H         1 <0>         0.0893
     59 H31         1.4650    1.8610    4.9970 H         1 <0>         0.0941
     60 H32         2.3425    0.4904    5.7179 H         1 <0>         0.0756
     61 H33        -0.6920   -0.9193    6.6849 H         1 <0>         0.4372
@<TRIPOS>BOND
     1    1    2 1
     2    1   31 1
     3    1   32 1
     4    1   33 1
     5    2    3 1
     6    2   34 1
     7    2   35 1
     8    3    4 1
     9    3   36 1
    10    3   37 1
    11    4    9 1
    12    4    5 1
    13    4   38 1
    14    5    6 1
    15    5   39 1
    16    5   40 1
    17    6    7 1
    18    6   41 1
    19    6   42 1
    20    7    8 1
    21    7   43 1
    22    7   44 1
    23    8    9 1
    24    8   45 1
    25    8   46 1
    26    9   10 am
    27   10   11 2
    28   10   12 1
    29   12   13 1
    30   12   27 1
    31   12   47 1
    32   13   14 1
    33   13   18 1
    34   13   15 1
    35   15   16 1
    36   15   48 1
    37   15   49 1
    38   16   17 1
    39   16   24 1
    40   16   50 1
    41   17   18 1
    42   17   51 1
    43   17   52 1
    44   18   19 1
    45   18   20 1
    46   20   21 2
    47   20   61 1
    48   21   22 1
    49   21   23 1
    50   22   53 1
    51   22   54 1
    52   23   55 1
    53   23   56 1
    54   24   25 2
    55   24   26 1
    56   27   28 am
    57   27   57 1
    58   28   29 2
    59   28   30 1
    60   30   58 1
    61   30   59 1
    62   30   60 1
@<TRIPOS>MOLECULE
CHEMBL301233__1
   61    62     0     0     0
SMALL
USER_CHARGES

@<TRIPOS>ATOM
      1 C1         -2.3758    1.2307   -1.2854 C.3       1 <0>        -0.1472
      2 C2         -1.9056   -0.2176   -1.4344 C.3       1 <0>        -0.1341
      3 C3         -1.4314   -0.7421   -0.0775 C.3       1 <0>        -0.1030
      4 C4         -1.0482   -2.2177   -0.2067 C.3       1 <0>         0.1500
      5 C5         -2.2684   -3.0278   -0.6558 C.3       1 <0>        -0.1353
      6 C6         -1.9174   -4.5174   -0.6488 C.3       1 <0>        -0.1191
      7 C7         -1.5471   -4.9493    0.7718 C.3       1 <0>        -0.1422
      8 C8         -0.3187   -4.1610    1.2371 C.3       1 <0>         0.0998
      9 N1         -0.5970   -2.7252    1.0962 N.am      1 <0>        -0.6074
     10 C9         -0.4413   -1.8897    2.1421 C.2       1 <0>         0.5023
     11 O1         -0.8014   -0.7349    2.0546 O.2       1 <0>        -0.4849
     12 C10         0.1801   -2.3904    3.4205 C.3       1 <0>         0.1291
     13 C11        -0.9036   -2.5394    4.4902 C.3       1 <0>        -0.0986
     14 H1         -1.4270   -1.5929    4.6255 H         1 <0>         0.1146
     15 C12        -1.8997   -3.6388    4.0817 C.3       1 <0>        -0.1122
     16 C13        -1.8384   -4.7195    5.1809 C.3       1 <0>        -0.1530
     17 C14        -1.3138   -3.9642    6.4273 C.3       1 <0>        -0.1132
     18 C15        -0.2716   -2.9891    5.8236 C.3       1 <0>         0.1178
     19 H2          0.6725   -3.5034    5.6441 H         1 <0>         0.1064
     20 N2         -0.0704   -1.8395    6.7092 N.pl3     1 <0>        -0.6355
     21 C16         0.8492   -1.8808    7.6320 C.cat     1 <0>         0.7329
     22 N3          1.6303   -3.0031    7.7743 N.pl3     1 <0>        -0.8162
     23 N4          1.0380   -0.8019    8.4630 N.pl3     1 <0>        -0.8213
     24 C17        -3.2113   -5.2823    5.4444 C.2       1 <0>         0.4960
     25 O2         -3.3530   -6.4773    5.6402 O.co2     1 <0>        -0.6891
     26 O3         -4.1804   -4.5426    5.4617 O.co2     1 <0>        -0.6854
     27 N5          1.1909   -1.4343    3.8793 N.am      1 <0>        -0.7310
     28 C18         0.8378   -0.1651    4.1641 C.2       1 <0>         0.4933
     29 O4         -0.3167    0.1854    4.0407 O.2       1 <0>        -0.4831
     30 C19         1.8775    0.8184    4.6361 C.3       1 <0>        -0.1750
     31 H3         -2.7136    1.6043   -2.2520 H         1 <0>         0.0509
     32 H4         -3.1984    1.2740   -0.5715 H         1 <0>         0.0539
     33 H5         -1.5505    1.8455   -0.9264 H         1 <0>         0.0509
     34 H6         -2.7310   -0.8325   -1.7933 H         1 <0>         0.0618
     35 H7         -1.0831   -0.2610   -2.1483 H         1 <0>         0.0551
     36 H8         -0.5644   -0.1689    0.2507 H         1 <0>         0.0774
     37 H9         -2.2337   -0.6377    0.6529 H         1 <0>         0.0787
     38 H10        -0.2469   -2.3244   -0.9379 H         1 <0>         0.0693
     39 H11        -3.0974   -2.8461    0.0282 H         1 <0>         0.0707
     40 H12        -2.5546   -2.7261   -1.6634 H         1 <0>         0.0769
     41 H13        -2.7763   -5.0944   -0.9916 H         1 <0>         0.0692
     42 H14        -1.0724   -4.6944   -1.3142 H         1 <0>         0.0625
     43 H15        -2.3829   -4.7496    1.4424 H         1 <0>         0.0773
     44 H16        -1.3199   -6.0153    0.7804 H         1 <0>         0.0801
     45 H17        -0.1104   -4.3920    2.2818 H         1 <0>         0.0859
     46 H18         0.5412   -4.4285    0.6231 H         1 <0>         0.0711
     47 H19         0.6497   -3.3577    3.2417 H         1 <0>         0.1096
     48 H20        -2.9066   -3.2261    4.0196 H         1 <0>         0.0939
     49 H21        -1.6110   -4.0662    3.1214 H         1 <0>         0.0731
     50 H22        -1.1476   -5.5135    4.8972 H         1 <0>         0.0736
     51 H23        -2.1198   -3.4147    6.9135 H         1 <0>         0.0877
     52 H24        -0.8390   -4.6538    7.1253 H         1 <0>         0.0746
     53 H25         1.4971   -3.7643    7.1880 H         1 <0>         0.4367
     54 H26         2.3147   -3.0338    8.4611 H         1 <0>         0.4337
     55 H27         0.4868   -0.0100    8.3625 H         1 <0>         0.4363
     56 H28         1.7223   -0.8326    9.1497 H         1 <0>         0.4346
     57 H29         2.1142   -1.7146    3.9780 H         1 <0>         0.4014
     58 H30         2.6496    0.9246    3.8740 H         1 <0>         0.0888
     59 H31         1.4080    1.7857    4.8149 H         1 <0>         0.0948
     60 H32         2.3270    0.4562    5.5607 H         1 <0>         0.0760
     61 H33        -0.6216   -1.0476    6.6087 H         1 <0>         0.4386
@<TRIPOS>BOND
     1    1    2 1
     2    1   31 1
     3    1   32 1
     4    1   33 1
     5    2    3 1
     6    2   34 1
     7    2   35 1
     8    3    4 1
     9    3   36 1
    10    3   37 1
    11    4    9 1
    12    4    5 1
    13    4   38 1
    14    5    6 1
    15    5   39 1
    16    5   40 1
    17    6    7 1
    18    6   41 1
    19    6   42 1
    20    7    8 1
    21    7   43 1
    22    7   44 1
    23    8    9 1
    24    8   45 1
    25    8   46 1
    26    9   10 am
    27   10   11 2
    28   10   12 1
    29   12   13 1
    30   12   27 1
    31   12   47 1
    32   13   14 1
    33   13   18 1
    34   13   15 1
    35   15   16 1
    36   15   48 1
    37   15   49 1
    38   16   17 1
    39   16   24 1
    40   16   50 1
    41   17   18 1
    42   17   51 1
    43   17   52 1
    44   18   19 1
    45   18   20 1
    46   20   21 2
    47   20   61 1
    48   21   22 1
    49   21   23 1
    50   22   53 1
    51   22   54 1
    52   23   55 1
    53   23   56 1
    54   24   25 2
    55   24   26 1
    56   27   28 am
    57   27   57 1
    58   28   29 2
    59   28   30 1
    60   30   58 1
    61   30   59 1
    62   30   60 1
@<TRIPOS>MOLECULE
CHEMBL301233__2
   61    62     0     0     0
SMALL
USER_CHARGES

@<TRIPOS>ATOM
      1 C1         -1.9377    1.4403   -1.3904 C.3       1 <0>        -0.1490
      2 C2         -1.8793   -0.0886   -1.3919 C.3       1 <0>        -0.1329
      3 C3         -1.3907   -0.5817   -0.0284 C.3       1 <0>        -0.1079
      4 C4         -1.4483   -2.1101    0.0118 C.3       1 <0>         0.1480
      5 C5         -2.8935   -2.5751   -0.1927 C.3       1 <0>        -0.1343
      6 C6         -2.9670   -4.0931   -0.0132 C.3       1 <0>        -0.1207
      7 C7         -2.5376   -4.4617    1.4087 C.3       1 <0>        -0.1364
      8 C8         -1.0884   -4.0181    1.6314 C.3       1 <0>         0.1058
      9 N1         -0.9789   -2.5864    1.3200 N.am      1 <0>        -0.6070
     10 C9         -0.4578   -1.7264    2.2174 C.2       1 <0>         0.5066
     11 O1         -0.4639   -0.5351    1.9900 O.2       1 <0>        -0.5017
     12 C10         0.1324   -2.2450    3.5034 C.3       1 <0>         0.1283
     13 C11         1.5460   -2.7683    3.2412 C.3       1 <0>        -0.1040
     14 H1          1.5279   -3.5485    2.4803 H         1 <0>         0.1042
     15 C12         2.4809   -1.6113    2.8092 C.3       1 <0>        -0.0845
     16 C13         3.8851   -2.1506    3.1785 C.3       1 <0>        -0.1575
     17 C14         3.6638   -2.9044    4.5061 C.3       1 <0>        -0.1133
     18 C15         2.1752   -3.3004    4.5453 C.3       1 <0>         0.1116
     19 H2          1.6902   -2.8429    5.4077 H         1 <0>         0.1084
     20 N2          2.0420   -4.7579    4.6085 N.pl3     1 <0>        -0.6450
     21 C16         2.0413   -5.3628    5.7631 C.cat     1 <0>         0.7377
     22 N3          2.1656   -4.6330    6.9216 N.pl3     1 <0>        -0.8114
     23 N4          1.9163   -6.7307    5.8224 N.pl3     1 <0>        -0.8194
     24 C17         4.8529   -1.0119    3.3734 C.2       1 <0>         0.4949
     25 O2          5.7831   -1.1291    4.1529 O.co2     1 <0>        -0.6932
     26 O3          4.7056    0.0265    2.7517 O.co2     1 <0>        -0.6807
     27 N5          0.1876   -1.1611    4.4874 N.am      1 <0>        -0.7142
     28 C18        -0.8568   -0.9453    5.3115 C.2       1 <0>         0.5180
     29 O4         -1.8037   -1.7030    5.3016 O.2       1 <0>        -0.5480
     30 C19        -0.8479    0.2375    6.2454 C.3       1 <0>        -0.1776
     31 H3         -2.2858    1.7915   -2.3617 H         1 <0>         0.0514
     32 H4         -2.6254    1.7768   -0.6145 H         1 <0>         0.0519
     33 H5         -0.9436    1.8417   -1.1938 H         1 <0>         0.0560
     34 H6         -2.8735   -0.4900   -1.5885 H         1 <0>         0.0586
     35 H7         -1.1917   -0.4252   -2.1678 H         1 <0>         0.0580
     36 H8         -0.3638   -0.2525    0.1303 H         1 <0>         0.0881
     37 H9         -2.0285   -0.1733    0.7555 H         1 <0>         0.0735
     38 H10        -0.8154   -2.5204   -0.7751 H         1 <0>         0.0736
     39 H11        -3.5388   -2.0904    0.5400 H         1 <0>         0.0672
     40 H12        -3.2218   -2.3113   -1.1981 H         1 <0>         0.0793
     41 H13        -3.9898   -4.4297   -0.1824 H         1 <0>         0.0675
     42 H14        -2.3027   -4.5761   -0.7298 H         1 <0>         0.0651
     43 H15        -3.1862   -3.9593    2.1264 H         1 <0>         0.0695
     44 H16        -2.6126   -5.5408    1.5432 H         1 <0>         0.0749
     45 H17        -0.8098   -4.1882    2.6714 H         1 <0>         0.0755
     46 H18        -0.4277   -4.5861    0.9764 H         1 <0>         0.0717
     47 H19        -0.4889   -3.0537    3.8881 H         1 <0>         0.1111
     48 H20         2.4052   -1.4335    1.7365 H         1 <0>         0.0821
     49 H21         2.2562   -0.7035    3.3691 H         1 <0>         0.0807
     50 H22         4.2467   -2.8322    2.4085 H         1 <0>         0.0758
     51 H23         4.2870   -3.7982    4.5364 H         1 <0>         0.0741
     52 H24         3.9011   -2.2546    5.3485 H         1 <0>         0.0941
     53 H25         2.2538   -3.6680    6.8797 H         1 <0>         0.4381
     54 H26         2.1651   -5.0832    7.7808 H         1 <0>         0.4351
     55 H27         1.8286   -7.2456    5.0051 H         1 <0>         0.4357
     56 H28         1.9157   -7.1808    6.6816 H         1 <0>         0.4358
     57 H29         0.9758   -0.5987    4.5458 H         1 <0>         0.4143
     58 H30        -0.7755    1.1577    5.6656 H         1 <0>         0.0967
     59 H31        -1.7688    0.2470    6.8285 H         1 <0>         0.0946
     60 H32         0.0070    0.1633    6.9175 H         1 <0>         0.0908
     61 H33         1.9543   -5.2728    3.7912 H         1 <0>         0.4347
@<TRIPOS>BOND
     1    1    2 1
     2    1   31 1
     3    1   32 1
     4    1   33 1
     5    2    3 1
     6    2   34 1
     7    2   35 1
     8    3    4 1
     9    3   36 1
    10    3   37 1
    11    4    9 1
    12    4    5 1
    13    4   38 1
    14    5    6 1
    15    5   39 1
    16    5   40 1
    17    6    7 1
    18    6   41 1
    19    6   42 1
    20    7    8 1
    21    7   43 1
    22    7   44 1
    23    8    9 1
    24    8   45 1
    25    8   46 1
    26    9   10 am
    27   10   11 2
    28   10   12 1
    29   12   13 1
    30   12   27 1
    31   12   47 1
    32   13   14 1
    33   13   18 1
    34   13   15 1
    35   15   16 1
    36   15   48 1
    37   15   49 1
    38   16   17 1
    39   16   24 1
    40   16   50 1
    41   17   18 1
    42   17   51 1
    43   17   52 1
    44   18   19 1
    45   18   20 1
    46   20   21 2
    47   20   61 1
    48   21   22 1
    49   21   23 1
    50   22   53 1
    51   22   54 1
    52   23   55 1
    53   23   56 1
    54   24   25 2
    55   24   26 1
    56   27   28 am
    57   27   57 1
    58   28   29 2
    59   28   30 1
    60   30   58 1
    61   30   59 1
    62   30   60 1
@<TRIPOS>MOLECULE
CHEMBL301233__3
   61    62     0     0     0
SMALL
USER_CHARGES

@<TRIPOS>ATOM
      1 C1         -1.9700    1.5448   -1.2962 C.3       1 <0>        -0.1486
      2 C2         -1.9877    0.0149   -1.3001 C.3       1 <0>        -0.1334
      3 C3         -1.4638   -0.5047    0.0402 C.3       1 <0>        -0.1072
      4 C4         -1.5955   -2.0284    0.0832 C.3       1 <0>         0.1473
      5 C5         -3.0698   -2.4206   -0.0565 C.3       1 <0>        -0.1340
      6 C6         -3.2105   -3.9335    0.1264 C.3       1 <0>        -0.1211
      7 C7         -2.7370   -4.3259    1.5278 C.3       1 <0>        -0.1361
      8 C8         -1.2590   -3.9553    1.6854 C.3       1 <0>         0.1051
      9 N1         -1.0924   -2.5302    1.3692 N.am      1 <0>        -0.6052
     10 C9         -0.4897   -1.6990    2.2423 C.2       1 <0>         0.5078
     11 O1         -0.4463   -0.5084    2.0150 O.2       1 <0>        -0.5062
     12 C10         0.1303   -2.2488    3.5010 C.3       1 <0>         0.1262
     13 C11         1.5030   -2.8416    3.1765 C.3       1 <0>        -0.0948
     14 H1          1.4027   -3.6264    2.4267 H         1 <0>         0.1026
     15 C12         2.4452   -1.7389    2.6626 C.3       1 <0>        -0.1110
     16 C13         3.6303   -1.6773    3.6483 C.3       1 <0>        -0.1538
     17 C14         3.6538   -3.0812    4.3023 C.3       1 <0>        -0.1124
     18 C15         2.1479   -3.4128    4.4562 C.3       1 <0>         0.1105
     19 H2          1.7383   -2.9244    5.3404 H         1 <0>         0.1121
     20 N2          1.9457   -4.8619    4.5294 N.pl3     1 <0>        -0.6435
     21 C16         1.9566   -5.4639    5.6854 C.cat     1 <0>         0.7383
     22 N3          2.1578   -4.7389    6.8361 N.pl3     1 <0>        -0.8133
     23 N4          1.7669   -6.8238    5.7540 N.pl3     1 <0>        -0.8186
     24 C17         4.9179   -1.4181    2.9094 C.2       1 <0>         0.4968
     25 O2          5.7501   -0.6624    3.3813 O.co2     1 <0>        -0.6865
     26 O3          5.1274   -1.9642    1.8396 O.co2     1 <0>        -0.6866
     27 N5          0.2832   -1.1709    4.4812 N.am      1 <0>        -0.7134
     28 C18        -0.7112   -0.9052    5.3513 C.2       1 <0>         0.5173
     29 O4         -1.6941   -1.6150    5.3841 O.2       1 <0>        -0.5468
     30 C19        -0.6018    0.2739    6.2834 C.3       1 <0>        -0.1772
     31 H3         -2.3432    1.9149   -2.2511 H         1 <0>         0.0516
     32 H4         -2.6048    1.9134   -0.4904 H         1 <0>         0.0516
     33 H5         -0.9494    1.8959   -1.1442 H         1 <0>         0.0553
     34 H6         -3.0083   -0.3363   -1.4521 H         1 <0>         0.0589
     35 H7         -1.3529   -0.3538   -2.1059 H         1 <0>         0.0586
     36 H8         -0.4157   -0.2273    0.1528 H         1 <0>         0.0875
     37 H9         -2.0448   -0.0668    0.8518 H         1 <0>         0.0731
     38 H10        -1.0195   -2.4681   -0.7311 H         1 <0>         0.0747
     39 H11        -3.6568   -1.9060    0.7043 H         1 <0>         0.0670
     40 H12        -3.4290   -2.1388   -1.0462 H         1 <0>         0.0795
     41 H13        -4.2554   -4.2185    0.0031 H         1 <0>         0.0676
     42 H14        -2.6037   -4.4474   -0.6191 H         1 <0>         0.0657
     43 H15        -3.3271   -3.7934    2.2736 H         1 <0>         0.0692
     44 H16        -2.8594   -5.4002    1.6656 H         1 <0>         0.0752
     45 H17        -0.9431   -4.1412    2.7120 H         1 <0>         0.0753
     46 H18        -0.6572   -4.5540    1.0017 H         1 <0>         0.0731
     47 H19        -0.5129   -3.0263    3.9132 H         1 <0>         0.1113
     48 H20         2.8029   -1.9889    1.6638 H         1 <0>         0.0969
     49 H21         1.9245   -0.7815    2.6444 H         1 <0>         0.0777
     50 H22         3.4603   -0.9083    4.4017 H         1 <0>         0.0736
     51 H23         4.1429   -3.8036    3.6489 H         1 <0>         0.0901
     52 H24         4.1431   -3.0457    5.2756 H         1 <0>         0.0763
     53 H25         2.2916   -3.7794    6.7876 H         1 <0>         0.4372
     54 H26         2.1659   -5.1870    7.6964 H         1 <0>         0.4351
     55 H27         1.6250   -7.3353    4.9422 H         1 <0>         0.4363
     56 H28         1.7750   -7.2719    6.6144 H         1 <0>         0.4359
     57 H29         1.1002   -0.6484    4.5041 H         1 <0>         0.4134
     58 H30        -0.5098    1.1904    5.7007 H         1 <0>         0.0961
     59 H31        -1.4940    0.3279    6.9072 H         1 <0>         0.0948
     60 H32         0.2776    0.1561    6.9166 H         1 <0>         0.0905
     61 H33         1.8038   -5.3734    3.7175 H         1 <0>         0.4363
@<TRIPOS>BOND
     1    1    2 1
     2    1   31 1
     3    1   32 1
     4    1   33 1
     5    2    3 1
     6    2   34 1
     7    2   35 1
     8    3    4 1
     9    3   36 1
    10    3   37 1
    11    4    9 1
    12    4    5 1
    13    4   38 1
    14    5    6 1
    15    5   39 1
    16    5   40 1
    17    6    7 1
    18    6   41 1
    19    6   42 1
    20    7    8 1
    21    7   43 1
    22    7   44 1
    23    8    9 1
    24    8   45 1
    25    8   46 1
    26    9   10 am
    27   10   11 2
    28   10   12 1
    29   12   13 1
    30   12   27 1
    31   12   47 1
    32   13   14 1
    33   13   18 1
    34   13   15 1
    35   15   16 1
    36   15   48 1
    37   15   49 1
    38   16   17 1
    39   16   24 1
    40   16   50 1
    41   17   18 1
    42   17   51 1
    43   17   52 1
    44   18   19 1
    45   18   20 1
    46   20   21 2
    47   20   61 1
    48   21   22 1
    49   21   23 1
    50   22   53 1
    51   22   54 1
    52   23   55 1
    53   23   56 1
    54   24   25 2
    55   24   26 1
    56   27   28 am
    57   27   57 1
    58   28   29 2
    59   28   30 1
    60   30   58 1
    61   30   59 1
    62   30   60 1
@<TRIPOS>MOLECULE
CHEMBL301233__4
   61    62     0     0     0
SMALL
USER_CHARGES

@<TRIPOS>ATOM
      1 C1         -1.9246    1.6935    1.2720 C.3       1 <0>        -0.1469
      2 C2         -2.0874    0.1737    1.2040 C.3       1 <0>        -0.1326
      3 C3         -1.3547   -0.3632   -0.0272 C.3       1 <0>        -0.1071
      4 C4         -1.4081   -1.8922   -0.0260 C.3       1 <0>         0.1471
      5 C5         -2.8683   -2.3551   -0.0456 C.3       1 <0>        -0.1299
      6 C6         -2.9146   -3.8785   -0.1847 C.3       1 <0>        -0.1229
      7 C7         -2.2590   -4.2920   -1.5043 C.3       1 <0>        -0.1357
      8 C8         -0.7919   -3.8511   -1.5012 C.3       1 <0>         0.0949
      9 N1         -0.7319   -2.4096   -1.2234 N.am      1 <0>        -0.6022
     10 C9         -0.0692   -1.5777   -2.0511 C.2       1 <0>         0.5055
     11 O1          0.0532   -0.4060   -1.7630 O.2       1 <0>        -0.4965
     12 C10         0.5199   -2.1035   -3.3347 C.3       1 <0>         0.1302
     13 C11         1.9774   -2.5053   -3.1000 C.3       1 <0>        -0.1059
     14 H1          2.5287   -1.6856   -2.6394 H         1 <0>         0.1136
     15 C12         2.0541   -3.7746   -2.2157 C.3       1 <0>        -0.0931
     16 C13         3.4400   -4.3622   -2.5805 C.3       1 <0>        -0.1564
     17 C14         3.5713   -4.1086   -4.0965 C.3       1 <0>        -0.1133
     18 C15         2.6423   -2.9246   -4.4274 C.3       1 <0>         0.1194
     19 H2          1.8821   -3.2359   -5.1438 H         1 <0>         0.1028
     20 N2          3.4203   -1.8096   -4.9731 N.pl3     1 <0>        -0.6372
     21 C16         3.6537   -1.7429   -6.2537 C.cat     1 <0>         0.7321
     22 N3          3.1698   -2.7190   -7.0924 N.pl3     1 <0>        -0.8144
     23 N4          4.3838   -0.6966   -6.7659 N.pl3     1 <0>        -0.8218
     24 C17         3.4802   -5.8399   -2.2875 C.2       1 <0>         0.4968
     25 O2          4.1891   -6.5745   -2.9541 O.co2     1 <0>        -0.6936
     26 O3          2.8038   -6.3007   -1.3838 O.co2     1 <0>        -0.6835
     27 N5          0.4601   -1.0612   -4.3624 N.am      1 <0>        -0.7291
     28 C18         1.0944    0.1123   -4.1698 C.2       1 <0>         0.5017
     29 O4          1.7147    0.3054   -3.1456 O.2       1 <0>        -0.4945
     30 C19         1.0329    1.1845   -5.2269 C.3       1 <0>        -0.1753
     31 H3         -2.4466    2.0760    2.1491 H         1 <0>         0.0511
     32 H4         -0.8657    1.9426    1.3420 H         1 <0>         0.0533
     33 H5         -2.3453    2.1446    0.3734 H         1 <0>         0.0501
     34 H6         -1.6667   -0.2774    2.1027 H         1 <0>         0.0590
     35 H7         -3.1463   -0.0755    1.1340 H         1 <0>         0.0579
     36 H8         -1.8341    0.0164   -0.9295 H         1 <0>         0.0626
     37 H9         -0.3153   -0.0359   -0.0028 H         1 <0>         0.0950
     38 H10        -0.9134   -2.2744    0.8669 H         1 <0>         0.0737
     39 H11        -3.3561   -2.0596    0.8833 H         1 <0>         0.0767
     40 H12        -3.3839   -1.8969   -0.8896 H         1 <0>         0.0634
     41 H13        -2.3775   -4.3355    0.6465 H         1 <0>         0.0682
     42 H14        -3.9520   -4.2128   -0.1742 H         1 <0>         0.0662
     43 H15        -2.3131   -5.3752   -1.6136 H         1 <0>         0.0802
     44 H16        -2.7803   -3.8156   -2.3345 H         1 <0>         0.0627
     45 H17        -0.2485   -4.3951   -0.7286 H         1 <0>         0.0865
     46 H18        -0.3472   -4.0543   -2.4754 H         1 <0>         0.0874
     47 H19        -0.0479   -2.9731   -3.6657 H         1 <0>         0.1121
     48 H20         2.0120   -3.5121   -1.1586 H         1 <0>         0.0796
     49 H21         1.2583   -4.4736   -2.4732 H         1 <0>         0.0838
     50 H22         4.2295   -3.8430   -2.0372 H         1 <0>         0.0742
     51 H23         4.6015   -3.8531   -4.3446 H         1 <0>         0.0714
     52 H24         3.2618   -4.9943   -4.6514 H         1 <0>         0.0930
     53 H25         2.6547   -3.4572   -6.7311 H         1 <0>         0.4375
     54 H26         3.3435   -2.6694   -8.0454 H         1 <0>         0.4336
     55 H27         4.7252   -0.0080   -6.1741 H         1 <0>         0.4358
     56 H28         4.5575   -0.6470   -7.7189 H         1 <0>         0.4346
     57 H29        -0.0360   -1.2156   -5.1816 H         1 <0>         0.4018
     58 H30        -0.0055    1.4708   -5.3941 H         1 <0>         0.0895
     59 H31         1.6007    2.0541   -4.8960 H         1 <0>         0.0941
     60 H32         1.4590    0.8042   -6.1553 H         1 <0>         0.0753
     61 H33         3.7617   -1.1210   -4.3814 H         1 <0>         0.4374
@<TRIPOS>BOND
     1    1    2 1
     2    1   31 1
     3    1   32 1
     4    1   33 1
     5    2    3 1
     6    2   34 1
     7    2   35 1
     8    3    4 1
     9    3   36 1
    10    3   37 1
    11    4    9 1
    12    4    5 1
    13    4   38 1
    14    5    6 1
    15    5   39 1
    16    5   40 1
    17    6    7 1
    18    6   41 1
    19    6   42 1
    20    7    8 1
    21    7   43 1
    22    7   44 1
    23    8    9 1
    24    8   45 1
    25    8   46 1
    26    9   10 am
    27   10   11 2
    28   10   12 1
    29   12   13 1
    30   12   27 1
    31   12   47 1
    32   13   14 1
    33   13   18 1
    34   13   15 1
    35   15   16 1
    36   15   48 1
    37   15   49 1
    38   16   17 1
    39   16   24 1
    40   16   50 1
    41   17   18 1
    42   17   51 1
    43   17   52 1
    44   18   19 1
    45   18   20 1
    46   20   21 2
    47   20   61 1
    48   21   22 1
    49   21   23 1
    50   22   53 1
    51   22   54 1
    52   23   55 1
    53   23   56 1
    54   24   25 2
    55   24   26 1
    56   27   28 am
    57   27   57 1
    58   28   29 2
    59   28   30 1
    60   30   58 1
    61   30   59 1
    62   30   60 1
@<TRIPOS>MOLECULE
CHEMBL301233__5
   61    62     0     0     0
SMALL
USER_CHARGES

@<TRIPOS>ATOM
      1 C1         -1.8228    1.5672    1.4253 C.3       1 <0>        -0.1473
      2 C2         -2.1216    0.0795    1.2294 C.3       1 <0>        -0.1323
      3 C3         -1.3577   -0.4376    0.0088 C.3       1 <0>        -0.1066
      4 C4         -1.5491   -1.9510   -0.1091 C.3       1 <0>         0.1470
      5 C5         -3.0421   -2.2719   -0.2309 C.3       1 <0>        -0.1302
      6 C6         -3.2185   -3.7702   -0.4878 C.3       1 <0>        -0.1231
      7 C7         -2.5343   -4.1480   -1.8036 C.3       1 <0>        -0.1347
      8 C8         -1.0356   -3.8484   -1.6996 C.3       1 <0>         0.0955
      9 N1         -0.8603   -2.4426   -1.3102 N.am      1 <0>        -0.6052
     10 C9         -0.0823   -1.6195   -2.0408 C.2       1 <0>         0.5044
     11 O1          0.1331   -0.4894   -1.6570 O.2       1 <0>        -0.4895
     12 C10         0.5199   -2.1035   -3.3347 C.3       1 <0>         0.1288
     13 C11         1.9774   -2.5053   -3.1000 C.3       1 <0>        -0.0980
     14 H1          2.5221   -1.6812   -2.6395 H         1 <0>         0.1132
     15 C12         2.0423   -3.7498   -2.1973 C.3       1 <0>        -0.1154
     16 C13         2.7418   -4.8533   -3.0175 C.3       1 <0>        -0.1531
     17 C14         3.5727   -4.0762   -4.0687 C.3       1 <0>        -0.1132
     18 C15         2.6401   -2.8948   -4.4375 C.3       1 <0>         0.1185
     19 H2          1.8868   -3.2141   -5.1578 H         1 <0>         0.1065
     20 N2          3.4178   -1.7733   -4.9702 N.pl3     1 <0>        -0.6355
     21 C16         3.6452   -1.6879   -6.2508 C.cat     1 <0>         0.7327
     22 N3          3.1553   -2.6503   -7.1016 N.pl3     1 <0>        -0.8162
     23 N4          4.3750   -0.6355   -6.7506 N.pl3     1 <0>        -0.8212
     24 C17         3.6447   -5.6749   -2.1340 C.2       1 <0>         0.4958
     25 O2          3.7065   -6.8836   -2.2815 O.co2     1 <0>        -0.6892
     26 O3          4.3134   -5.1310   -1.2718 O.co2     1 <0>        -0.6854
     27 N5          0.4634   -1.0309   -4.3310 N.am      1 <0>        -0.7305
     28 C18         1.0902    0.1392   -4.0977 C.2       1 <0>         0.4968
     29 O4          1.7010    0.3042   -3.0630 O.2       1 <0>        -0.4870
     30 C19         1.0321    1.2425   -5.1226 C.3       1 <0>        -0.1751
     31 H3         -2.3670    1.9356    2.2949 H         1 <0>         0.0512
     32 H4         -0.7529    1.7055    1.5809 H         1 <0>         0.0541
     33 H5         -2.1357    2.1203    0.5397 H         1 <0>         0.0501
     34 H6         -1.8087   -0.4736    2.1150 H         1 <0>         0.0594
     35 H7         -3.1915   -0.0588    1.0738 H         1 <0>         0.0577
     36 H8         -1.7378    0.0478   -0.8902 H         1 <0>         0.0632
     37 H9         -0.2971   -0.2133    0.1221 H         1 <0>         0.0944
     38 H10        -1.1388   -2.4411    0.7738 H         1 <0>         0.0740
     39 H11        -3.5495   -1.9992    0.6944 H         1 <0>         0.0776
     40 H12        -3.4690   -1.7079   -1.0603 H         1 <0>         0.0638
     41 H13        -2.7695   -4.3342    0.3299 H         1 <0>         0.0678
     42 H14        -4.2810   -4.0054   -0.5503 H         1 <0>         0.0670
     43 H15        -2.6803   -5.2106   -1.9976 H         1 <0>         0.0793
     44 H16        -2.9660   -3.5663   -2.6181 H         1 <0>         0.0645
     45 H17        -0.5851   -4.4950   -0.9466 H         1 <0>         0.0821
     46 H18        -0.5604   -4.0221   -2.6650 H         1 <0>         0.0870
     47 H19        -0.0409   -2.9654   -3.6965 H         1 <0>         0.1111
     48 H20         2.6192   -3.5297   -1.2990 H         1 <0>         0.0944
     49 H21         1.0354   -4.0674   -1.9264 H         1 <0>         0.0739
     50 H22         2.0048   -5.4891   -3.5080 H         1 <0>         0.0740
     51 H23         4.5030   -3.7117   -3.6331 H         1 <0>         0.0877
     52 H24         3.7712   -4.6988   -4.9411 H         1 <0>         0.0746
     53 H25         2.6404   -3.3929   -6.7490 H         1 <0>         0.4367
     54 H26         3.3246   -2.5868   -8.0546 H         1 <0>         0.4336
     55 H27         4.7207    0.0435   -6.1503 H         1 <0>         0.4364
     56 H28         4.5443   -0.5719   -7.7036 H         1 <0>         0.4346
     57 H29        -0.0251   -1.1629   -5.1585 H         1 <0>         0.4014
     58 H30        -0.0063    1.5288   -5.2898 H         1 <0>         0.0890
     59 H31         1.5929    2.1044   -4.7608 H         1 <0>         0.0946
     60 H32         1.4677    0.8925   -6.0584 H         1 <0>         0.0754
     61 H33         3.7634   -1.0943   -4.3699 H         1 <0>         0.4388
@<TRIPOS>BOND
     1    1    2 1
     2    1   31 1
     3    1   32 1
     4    1   33 1
     5    2    3 1
     6    2   34 1
     7    2   35 1
     8    3    4 1
     9    3   36 1
    10    3   37 1
    11    4    9 1
    12    4    5 1
    13    4   38 1
    14    5    6 1
    15    5   39 1
    16    5   40 1
    17    6    7 1
    18    6   41 1
    19    6   42 1
    20    7    8 1
    21    7   43 1
    22    7   44 1
    23    8    9 1
    24    8   45 1
    25    8   46 1
    26    9   10 am
    27   10   11 2
    28   10   12 1
    29   12   13 1
    30   12   27 1
    31   12   47 1
    32   13   14 1
    33   13   18 1
    34   13   15 1
    35   15   16 1
    36   15   48 1
    37   15   49 1
    38   16   17 1
    39   16   24 1
    40   16   50 1
    41   17   18 1
    42   17   51 1
    43   17   52 1
    44   18   19 1
    45   18   20 1
    46   20   21 2
    47   20   61 1
    48   21   22 1
    49   21   23 1
    50   22   53 1
    51   22   54 1
    52   23   55 1
    53   23   56 1
    54   24   25 2
    55   24   26 1
    56   27   28 am
    57   27   57 1
    58   28   29 2
    59   28   30 1
    60   30   58 1
    61   30   59 1
    62   30   60 1
@<TRIPOS>MOLECULE
CHEMBL301233__6
   61    62     0     0     0
SMALL
USER_CHARGES

@<TRIPOS>ATOM
      1 C1         -2.2000    1.4840    1.2859 C.3       1 <0>        -0.1497
      2 C2         -2.1797   -0.0456    1.2542 C.3       1 <0>        -0.1300
      3 C3         -1.4240   -0.5199    0.0113 C.3       1 <0>        -0.1132
      4 C4         -1.2938   -2.0440    0.0443 C.3       1 <0>         0.1487
      5 C5         -2.6878   -2.6776    0.0908 C.3       1 <0>        -0.1342
      6 C6         -2.5563   -4.1986   -0.0168 C.3       1 <0>        -0.1211
      7 C7         -1.9045   -4.5627   -1.3527 C.3       1 <0>        -0.1375
      8 C8         -0.5017   -3.9505   -1.4155 C.3       1 <0>         0.1057
      9 N1         -0.6047   -2.5059   -1.1683 N.am      1 <0>        -0.6072
     10 C9         -0.0770   -1.6211   -2.0374 C.2       1 <0>         0.5078
     11 O1         -0.0825   -0.4369   -1.7756 O.2       1 <0>        -0.5021
     12 C10         0.5198   -2.1034   -3.3345 C.3       1 <0>         0.1287
     13 C11        -0.5994   -2.3688   -4.3433 C.3       1 <0>        -0.1044
     14 H1         -1.3026   -3.1015   -3.9475 H         1 <0>         0.1043
     15 C12        -1.3321   -1.0514   -4.6993 C.3       1 <0>        -0.0838
     16 C13        -1.9472   -1.3662   -6.0855 C.3       1 <0>        -0.1573
     17 C14        -0.8696   -2.2127   -6.7941 C.3       1 <0>        -0.1133
     18 C15        -0.0129   -2.8536   -5.6853 C.3       1 <0>         0.1114
     19 H2          1.0231   -2.5280   -5.7793 H         1 <0>         0.1086
     20 N2         -0.0900   -4.3142   -5.7683 N.pl3     1 <0>        -0.6452
     21 C16         0.7407   -4.9684   -6.5304 C.cat     1 <0>         0.7378
     22 N3          1.6892   -4.2878   -7.2564 N.pl3     1 <0>        -0.8113
     23 N4          0.6683   -6.3391   -6.6083 N.pl3     1 <0>        -0.8194
     24 C17        -2.2046   -0.0931   -6.8497 C.2       1 <0>         0.4950
     25 O2         -2.1538   -0.0924   -8.0678 O.co2     1 <0>        -0.6932
     26 O3         -2.4637    0.9362   -6.2497 O.co2     1 <0>        -0.6807
     27 N5          1.4240   -1.0805   -3.8661 N.am      1 <0>        -0.7143
     28 C18         2.7254   -1.0838   -3.5159 C.2       1 <0>         0.5180
     29 O4          3.1678   -1.9843   -2.8346 O.2       1 <0>        -0.5480
     30 C19         3.6309    0.0316   -3.9709 C.3       1 <0>        -0.1775
     31 H3         -2.7384    1.8219    2.1714 H         1 <0>         0.0514
     32 H4         -1.1775    1.8604    1.3166 H         1 <0>         0.0532
     33 H5         -2.6986    1.8593    0.3923 H         1 <0>         0.0557
     34 H6         -1.6811   -0.4209    2.1478 H         1 <0>         0.0561
     35 H7         -3.2022   -0.4219    1.2234 H         1 <0>         0.0589
     36 H8         -1.9714   -0.2213   -0.8828 H         1 <0>         0.0719
     37 H9         -0.4310   -0.0707   -0.0037 H         1 <0>         0.0929
     38 H10        -0.7247   -2.3431    0.9244 H         1 <0>         0.0710
     39 H11        -3.1733   -2.4201    1.0321 H         1 <0>         0.0797
     40 H12        -3.2850   -2.3044   -0.7412 H         1 <0>         0.0698
     41 H13        -1.9384   -4.5684    0.8015 H         1 <0>         0.0651
     42 H14        -3.5451   -4.6535    0.0408 H         1 <0>         0.0686
     43 H15        -1.8325   -5.6470   -1.4387 H         1 <0>         0.0754
     44 H16        -2.5091   -4.1717   -2.1710 H         1 <0>         0.0684
     45 H17         0.1308   -4.4073   -0.6543 H         1 <0>         0.0732
     46 H18        -0.0717   -4.1226   -2.4023 H         1 <0>         0.0740
     47 H19         1.0761   -3.0240   -3.1584 H         1 <0>         0.1103
     48 H20        -2.1130   -0.8347   -3.9704 H         1 <0>         0.0815
     49 H21        -0.6265   -0.2236   -4.7687 H         1 <0>         0.0807
     50 H22        -2.8684   -1.9378   -5.9732 H         1 <0>         0.0754
     51 H23        -1.3411   -2.9900   -7.3954 H         1 <0>         0.0741
     52 H24        -0.2500   -1.5759   -7.4256 H         1 <0>         0.0942
     53 H25         1.7403   -3.3207   -7.2015 H         1 <0>         0.4381
     54 H26         2.3074   -4.7747   -7.8236 H         1 <0>         0.4351
     55 H27        -0.0009   -6.8194   -6.0961 H         1 <0>         0.4356
     56 H28         1.2865   -6.8260   -7.1755 H         1 <0>         0.4358
     57 H29         1.0859   -0.4010   -4.4701 H         1 <0>         0.4143
     58 H30         3.2577    0.9816   -3.5884 H         1 <0>         0.0968
     59 H31         4.6386   -0.1415   -3.5931 H         1 <0>         0.0947
     60 H32         3.6515    0.0614   -5.0603 H         1 <0>         0.0907
     61 H33        -0.7592   -4.7944   -5.2560 H         1 <0>         0.4345
@<TRIPOS>BOND
     1    1    2 1
     2    1   31 1
     3    1   32 1
     4    1   33 1
     5    2    3 1
     6    2   34 1
     7    2   35 1
     8    3    4 1
     9    3   36 1
    10    3   37 1
    11    4    9 1
    12    4    5 1
    13    4   38 1
    14    5    6 1
    15    5   39 1
    16    5   40 1
    17    6    7 1
    18    6   41 1
    19    6   42 1
    20    7    8 1
    21    7   43 1
    22    7   44 1
    23    8    9 1
    24    8   45 1
    25    8   46 1
    26    9   10 am
    27   10   11 2
    28   10   12 1
    29   12   13 1
    30   12   27 1
    31   12   47 1
    32   13   14 1
    33   13   18 1
    34   13   15 1
    35   15   16 1
    36   15   48 1
    37   15   49 1
    38   16   17 1
    39   16   24 1
    40   16   50 1
    41   17   18 1
    42   17   51 1
    43   17   52 1
    44   18   19 1
    45   18   20 1
    46   20   21 2
    47   20   61 1
    48   21   22 1
    49   21   23 1
    50   22   53 1
    51   22   54 1
    52   23   55 1
    53   23   56 1
    54   24   25 2
    55   24   26 1
    56   27   28 am
    57   27   57 1
    58   28   29 2
    59   28   30 1
    60   30   58 1
    61   30   59 1
    62   30   60 1
@<TRIPOS>MOLECULE
CHEMBL301233__7
   61    62     0     0     0
SMALL
USER_CHARGES

@<TRIPOS>ATOM
      1 C1         -2.2116    1.4213    1.3271 C.3       1 <0>        -0.1493
      2 C2         -2.1717   -0.1076    1.2862 C.3       1 <0>        -0.1304
      3 C3         -1.4194   -0.5649    0.0348 C.3       1 <0>        -0.1130
      4 C4         -1.2692   -2.0873    0.0578 C.3       1 <0>         0.1488
      5 C5         -2.6545   -2.7393    0.1109 C.3       1 <0>        -0.1350
      6 C6         -2.5040   -4.2577   -0.0066 C.3       1 <0>        -0.1207
      7 C7         -1.8576   -4.6056   -1.3495 C.3       1 <0>        -0.1386
      8 C8         -0.4633   -3.9748   -1.4191 C.3       1 <0>         0.1058
      9 N1         -0.5832   -2.5331   -1.1626 N.am      1 <0>        -0.6056
     10 C9         -0.0736   -1.6365   -2.0303 C.2       1 <0>         0.5089
     11 O1         -0.0925   -0.4540   -1.7615 O.2       1 <0>        -0.5065
     12 C10         0.5198   -2.1033   -3.3345 C.3       1 <0>         0.1266
     13 C11        -0.6033   -2.3776   -4.3366 C.3       1 <0>        -0.0952
     14 H1         -1.2865   -3.1263   -3.9357 H         1 <0>         0.1028
     15 C12        -1.3668   -1.0769   -4.6416 C.3       1 <0>        -0.1104
     16 C13        -1.2110   -0.8188   -6.1546 C.3       1 <0>        -0.1539
     17 C14        -0.9183   -2.2182   -6.7504 C.3       1 <0>        -0.1123
     18 C15        -0.0103   -2.8657   -5.6745 C.3       1 <0>         0.1104
     19 H2          1.0176   -2.5202   -5.7848 H         1 <0>         0.1123
     20 N2         -0.0734   -4.3269   -5.7605 N.pl3     1 <0>        -0.6437
     21 C16         0.7658   -4.9718   -6.5212 C.cat     1 <0>         0.7384
     22 N3          1.7103   -4.2808   -7.2429 N.pl3     1 <0>        -0.8132
     23 N4          0.7066   -6.3429   -6.6020 N.pl3     1 <0>        -0.8186
     24 C17        -2.4867   -0.2578   -6.7280 C.2       1 <0>         0.4971
     25 O2         -2.4413    0.6305   -7.5620 O.co2     1 <0>        -0.6867
     26 O3         -3.5642   -0.6920   -6.3580 O.co2     1 <0>        -0.6865
     27 N5          1.4066   -1.0657   -3.8667 N.am      1 <0>        -0.7135
     28 C18         2.7108   -1.0545   -3.5268 C.2       1 <0>         0.5174
     29 O4          3.1700   -1.9536   -2.8548 O.2       1 <0>        -0.5469
     30 C19         3.5983    0.0752   -3.9819 C.3       1 <0>        -0.1772
     31 H3         -2.7476    1.7470    2.2186 H         1 <0>         0.0516
     32 H4         -1.1939    1.8108    1.3524 H         1 <0>         0.0528
     33 H5         -2.7218    1.7953    0.4395 H         1 <0>         0.0552
     34 H6         -1.6615   -0.4817    2.1738 H         1 <0>         0.0563
     35 H7         -3.1895   -0.4971    1.2609 H         1 <0>         0.0597
     36 H8         -1.9774   -0.2682   -0.8533 H         1 <0>         0.0717
     37 H9         -0.4325   -0.1027    0.0151 H         1 <0>         0.0924
     38 H10        -0.6896   -2.3841    0.9320 H         1 <0>         0.0711
     39 H11        -3.1362   -2.4936    1.0573 H         1 <0>         0.0797
     40 H12        -3.2627   -2.3690   -0.7143 H         1 <0>         0.0713
     41 H13        -1.8753   -4.6242    0.8048 H         1 <0>         0.0646
     42 H14        -3.4864   -4.7258    0.0556 H         1 <0>         0.0692
     43 H15        -1.7721   -5.6882   -1.4425 H         1 <0>         0.0756
     44 H16        -2.4733   -4.2177   -2.1610 H         1 <0>         0.0702
     45 H17         0.1807   -4.4277   -0.6653 H         1 <0>         0.0733
     46 H18        -0.0386   -4.1355   -2.4100 H         1 <0>         0.0737
     47 H19         1.0894   -3.0176   -3.1679 H         1 <0>         0.1104
     48 H20        -2.4207   -1.1947   -4.3895 H         1 <0>         0.0964
     49 H21        -0.9372   -0.2503   -4.0757 H         1 <0>         0.0776
     50 H22        -0.3773   -0.1423   -6.3423 H         1 <0>         0.0737
     51 H23        -1.8401   -2.7875   -6.8705 H         1 <0>         0.0900
     52 H24        -0.3904   -2.1310   -7.7000 H         1 <0>         0.0765
     53 H25         1.7521   -3.3134   -7.1859 H         1 <0>         0.4372
     54 H26         2.3348   -4.7608   -7.8090 H         1 <0>         0.4351
     55 H27         0.0403   -6.8304   -6.0928 H         1 <0>         0.4363
     56 H28         1.3311   -6.8229   -7.1681 H         1 <0>         0.4359
     57 H29         1.0551   -0.3868   -4.4637 H         1 <0>         0.4134
     58 H30         3.2161    1.0179   -3.5904 H         1 <0>         0.0962
     59 H31         4.6111   -0.0873   -3.6132 H         1 <0>         0.0949
     60 H32         3.6097    0.1121   -5.0712 H         1 <0>         0.0905
     61 H33        -0.7397   -4.8143   -5.2513 H         1 <0>         0.4361
@<TRIPOS>BOND
     1    1    2 1
     2    1   31 1
     3    1   32 1
     4    1   33 1
     5    2    3 1
     6    2   34 1
     7    2   35 1
     8    3    4 1
     9    3   36 1
    10    3   37 1
    11    4    9 1
    12    4    5 1
    13    4   38 1
    14    5    6 1
    15    5   39 1
    16    5   40 1
    17    6    7 1
    18    6   41 1
    19    6   42 1
    20    7    8 1
    21    7   43 1
    22    7   44 1
    23    8    9 1
    24    8   45 1
    25    8   46 1
    26    9   10 am
    27   10   11 2
    28   10   12 1
    29   12   13 1
    30   12   27 1
    31   12   47 1
    32   13   14 1
    33   13   18 1
    34   13   15 1
    35   15   16 1
    36   15   48 1
    37   15   49 1
    38   16   17 1
    39   16   24 1
    40   16   50 1
    41   17   18 1
    42   17   51 1
    43   17   52 1
    44   18   19 1
    45   18   20 1
    46   20   21 2
    47   20   61 1
    48   21   22 1
    49   21   23 1
    50   22   53 1
    51   22   54 1
    52   23   55 1
    53   23   56 1
    54   24   25 2
    55   24   26 1
    56   27   28 am
    57   27   57 1
    58   28   29 2
    59   28   30 1
    60   30   58 1
    61   30   59 1
    62   30   60 1
@<TRIPOS>MOLECULE
CHEMBL167253
   56    57     0     0     0
SMALL
USER_CHARGES

@<TRIPOS>ATOM
      1 C1         -0.7056    1.4689   -0.4485 C.3       1 <0>        -0.1542
      2 C2         -0.4684   -0.0331   -0.2784 C.3       1 <0>        -0.1494
      3 C3          0.4669   -0.2704    0.9089 C.3       1 <0>         0.0965
      4 N1          0.8112   -1.6925    0.9827 N.am      1 <0>        -0.6061
      5 C4          2.0190   -2.1891    0.3189 C.3       1 <0>         0.1257
      6 C5          3.2005   -2.1155    1.2881 C.3       1 <0>        -0.0987
      7 C6          4.4431   -2.6264    0.6053 C.ar      1 <0>        -0.0647
      8 C7          4.7645   -3.9698    0.6706 C.ar      1 <0>        -0.1197
      9 C8          5.9035   -4.4416    0.0453 C.ar      1 <0>        -0.0992
     10 C9          6.7242   -3.5714   -0.6463 C.ar      1 <0>        -0.1474
     11 C10         6.4040   -2.2234   -0.7132 C.ar      1 <0>         0.1048
     12 C11         5.2569   -1.7534   -0.0899 C.ar      1 <0>        -0.1420
     13 O1          7.2095   -1.3654   -1.3929 O.3       1 <0>        -0.4992
     14 C12         0.0167   -2.5439    1.6612 C.2       1 <0>         0.5274
     15 O2          0.2673   -3.7305    1.6703 O.2       1 <0>        -0.4822
     16 C13        -1.1832   -2.0214    2.4085 C.3       1 <0>         0.0536
     17 H1         -1.2056   -0.9331    2.3522 H         1 <0>         0.1018
     18 C14        -2.4662   -2.5976    1.7943 C.3       1 <0>         0.0958
     19 H2         -2.4732   -3.6817    1.9076 H         1 <0>         0.1371
     20 C15        -3.6652   -1.9932    2.5326 C.3       1 <0>         0.0882
     21 H3         -3.7842   -0.9501    2.2396 H         1 <0>         0.1439
     22 C16        -3.4322   -2.0738    4.0169 C.2       1 <0>        -0.3731
     23 C17        -2.2280   -2.2753    4.5347 C.2       1 <0>         0.1415
     24 O3         -1.1150   -2.4320    3.7769 O.3       1 <0>        -0.2584
     25 C18        -2.0936   -2.3309    5.9987 C.2       1 <0>         0.5225
     26 O4         -3.0801   -2.1926    6.7093 O.co2     1 <0>        -0.6483
     27 O5         -0.9954   -2.5154    6.5057 O.co2     1 <0>        -0.6336
     28 N2         -4.8812   -2.7410    2.1863 N.4       1 <0>        -0.6264
     29 N3         -2.5332   -2.2490    0.3730 N.am      1 <0>        -0.7460
     30 C19        -2.0784   -3.1140   -0.5552 C.2       1 <0>         0.5057
     31 O6         -1.7032   -4.2183   -0.2227 O.2       1 <0>        -0.4954
     32 C20        -2.0361   -2.7088   -2.0061 C.3       1 <0>        -0.1720
     33 H4          0.2527    1.9797   -0.5421 H         1 <0>         0.0617
     34 H5         -1.2996    1.6436   -1.3455 H         1 <0>         0.0603
     35 H6         -1.2388    1.8533    0.4210 H         1 <0>         0.0574
     36 H7         -1.4199   -0.5329   -0.0970 H         1 <0>         0.0610
     37 H8         -0.0143   -0.4341   -1.1845 H         1 <0>         0.0711
     38 H9          1.3757    0.3171    0.7786 H         1 <0>         0.0908
     39 H10        -0.0317    0.0309    1.8301 H         1 <0>         0.0813
     40 H11         1.8654   -3.2235    0.0112 H         1 <0>         0.0894
     41 H12         2.2297   -1.5768   -0.5579 H         1 <0>         0.0805
     42 H13         3.3542   -1.0812    1.5958 H         1 <0>         0.0768
     43 H14         2.9899   -2.7279    2.1649 H         1 <0>         0.0832
     44 H15         4.1247   -4.6516    1.2112 H         1 <0>         0.1277
     45 H16         6.1524   -5.4913    0.0977 H         1 <0>         0.1286
     46 H17         7.6143   -3.9403   -1.1341 H         1 <0>         0.1283
     47 H18         5.0029   -0.7051   -0.1446 H         1 <0>         0.1269
     48 H19         6.9777   -1.2641   -2.3262 H         1 <0>         0.3898
     49 H20        -4.2746   -1.9635    4.6837 H         1 <0>         0.1659
     50 H21        -4.7711   -3.7066    2.4577 H         1 <0>         0.4374
     51 H22        -5.6707   -2.3430    2.6725 H         1 <0>         0.4400
     52 H23        -2.9050   -1.3957    0.0999 H         1 <0>         0.4061
     53 H24        -2.3256   -1.6622   -2.0997 H         1 <0>         0.0789
     54 H25        -1.0252   -2.8421   -2.3912 H         1 <0>         0.1014
     55 H26        -2.7270   -3.3293   -2.5768 H         1 <0>         0.1004
     56 H27        -5.0372   -2.6871    1.1909 H         1 <0>         0.4262
@<TRIPOS>BOND
     1    1    2 1
     2    1   33 1
     3    1   34 1
     4    1   35 1
     5    2    3 1
     6    2   36 1
     7    2   37 1
     8    3    4 1
     9    3   38 1
    10    3   39 1
    11    4    5 1
    12    4   14 am
    13    5    6 1
    14    5   40 1
    15    5   41 1
    16    6    7 1
    17    6   42 1
    18    6   43 1
    19    7   12 ar
    20    7    8 ar
    21    8    9 ar
    22    8   44 1
    23    9   10 ar
    24    9   45 1
    25   10   11 ar
    26   10   46 1
    27   11   12 ar
    28   11   13 1
    29   12   47 1
    30   13   48 1
    31   14   15 2
    32   14   16 1
    33   16   17 1
    34   16   24 1
    35   16   18 1
    36   18   19 1
    37   18   20 1
    38   18   29 1
    39   20   21 1
    40   20   22 1
    41   20   28 1
    42   22   23 2
    43   22   49 1
    44   23   24 1
    45   23   25 1
    46   25   26 2
    47   25   27 1
    48   28   50 1
    49   28   51 1
    50   28   56 1
    51   29   30 am
    52   29   52 1
    53   30   31 2
    54   30   32 1
    55   32   53 1
    56   32   54 1
    57   32   55 1
@<TRIPOS>MOLECULE
CHEMBL167253__1
   55    56     0     0     0
SMALL
USER_CHARGES

@<TRIPOS>ATOM
      1 C1         -0.8821    1.8823    0.2991 C.3       1 <0>        -0.1328
      2 C2         -0.7082    0.3680    0.4315 C.3       1 <0>        -0.1319
      3 C3         -2.0510   -0.3230    0.1858 C.3       1 <0>         0.1074
      4 N1         -1.9136   -1.7600    0.4353 N.am      1 <0>        -0.5938
      5 C4         -2.0848   -2.2876    1.7912 C.3       1 <0>         0.1210
      6 C5         -3.5544   -2.6490    2.0161 C.3       1 <0>        -0.0961
      7 C6         -3.7305   -3.1918    3.4109 C.ar      1 <0>        -0.0579
      8 C7         -3.5951   -4.5477    3.6468 C.ar      1 <0>        -0.1213
      9 C8         -3.7561   -5.0487    4.9252 C.ar      1 <0>        -0.1018
     10 C9         -4.0531   -4.1955    5.9705 C.ar      1 <0>        -0.1513
     11 C10        -4.1894   -2.8350    5.7365 C.ar      1 <0>         0.1047
     12 C11        -4.0214   -2.3339    4.4536 C.ar      1 <0>        -0.1404
     13 O1         -4.4815   -1.9937    6.7630 O.3       1 <0>        -0.5007
     14 C12        -1.6298   -2.5966   -0.5825 C.2       1 <0>         0.5424
     15 O2         -1.4552   -3.7772   -0.3664 O.2       1 <0>        -0.5396
     16 C13        -1.5293   -2.0652   -1.9891 C.3       1 <0>         0.0526
     17 H1         -0.9609   -2.7619   -2.6052 H         1 <0>         0.0998
     18 C14        -2.9360   -1.8851   -2.5756 C.3       1 <0>         0.1239
     19 H2         -3.4830   -1.1407   -1.9969 H         1 <0>         0.1158
     20 C15        -2.7943   -1.4103   -4.0256 C.3       1 <0>         0.1303
     21 H3         -2.4504   -2.2373   -4.6468 H         1 <0>         0.0372
     22 C16        -1.7963   -0.2861   -4.0895 C.2       1 <0>        -0.2508
     23 C17        -0.9319   -0.0503   -3.1117 C.2       1 <0>         0.0343
     24 O3         -0.8795   -0.7911   -1.9777 O.3       1 <0>        -0.2720
     25 C18         0.0138    1.0662   -3.2649 C.2       1 <0>         0.5364
     26 O4         -0.0089    1.7527   -4.2774 O.co2     1 <0>        -0.6693
     27 O5          0.8231    1.3083   -2.3797 O.co2     1 <0>        -0.6582
     28 N2         -4.0961   -0.9380   -4.5157 N.3       1 <0>        -0.8264
     29 N3         -3.6529   -3.1622   -2.5409 N.am      1 <0>        -0.7254
     30 C19        -4.9951   -3.1785   -2.4189 C.2       1 <0>         0.5058
     31 O6         -5.6176   -2.1377   -2.4298 O.2       1 <0>        -0.5251
     32 C20        -5.7222   -4.4899   -2.2691 C.3       1 <0>        -0.1706
     33 H4          0.0540    2.3792    0.5540 H         1 <0>         0.0543
     34 H5         -1.1565    2.1282   -0.7267 H         1 <0>         0.0621
     35 H6         -1.6678    2.2183    0.9759 H         1 <0>         0.0352
     36 H7          0.0190    0.0203   -0.3022 H         1 <0>         0.1005
     37 H8         -0.3549    0.1292    1.4346 H         1 <0>         0.0448
     38 H9         -2.8018    0.0924    0.8580 H         1 <0>         0.0653
     39 H10        -2.3591   -0.1614   -0.8473 H         1 <0>         0.0942
     40 H11        -1.4686   -3.1782    1.9151 H         1 <0>         0.0859
     41 H12        -1.7814   -1.5322    2.5161 H         1 <0>         0.0800
     42 H13        -4.1706   -1.7585    1.8923 H         1 <0>         0.0761
     43 H14        -3.8578   -3.4045    1.2913 H         1 <0>         0.0768
     44 H15        -3.3636   -5.2163    2.8309 H         1 <0>         0.1264
     45 H16        -3.6498   -6.1080    5.1068 H         1 <0>         0.1262
     46 H17        -4.1794   -4.5874    6.9689 H         1 <0>         0.1259
     47 H18        -4.1223   -1.2745    4.2696 H         1 <0>         0.1288
     48 H19        -3.7034   -1.6375    7.2132 H         1 <0>         0.3900
     49 H20        -1.7831    0.3504   -4.9619 H         1 <0>         0.1369
     50 H21        -4.0290   -0.6193   -5.4707 H         1 <0>         0.3403
     51 H22        -4.7995   -1.6554   -4.4226 H         1 <0>         0.3397
     52 H23        -3.1617   -3.9961   -2.6057 H         1 <0>         0.4028
     53 H24        -4.9975   -5.3005   -2.1920 H         1 <0>         0.0750
     54 H25        -6.3358   -4.4643   -1.3685 H         1 <0>         0.0938
     55 H26        -6.3592   -4.6536   -3.1382 H         1 <0>         0.0929
@<TRIPOS>BOND
     1    1    2 1
     2    1   33 1
     3    1   34 1
     4    1   35 1
     5    2    3 1
     6    2   36 1
     7    2   37 1
     8    3    4 1
     9    3   38 1
    10    3   39 1
    11    4    5 1
    12    4   14 am
    13    5    6 1
    14    5   40 1
    15    5   41 1
    16    6    7 1
    17    6   42 1
    18    6   43 1
    19    7   12 ar
    20    7    8 ar
    21    8    9 ar
    22    8   44 1
    23    9   10 ar
    24    9   45 1
    25   10   11 ar
    26   10   46 1
    27   11   12 ar
    28   11   13 1
    29   12   47 1
    30   13   48 1
    31   14   15 2
    32   14   16 1
    33   16   17 1
    34   16   24 1
    35   16   18 1
    36   18   19 1
    37   18   20 1
    38   18   29 1
    39   20   21 1
    40   20   22 1
    41   20   28 1
    42   22   23 2
    43   22   49 1
    44   23   24 1
    45   23   25 1
    46   25   26 2
    47   25   27 1
    48   28   50 1
    49   28   51 1
    50   29   30 am
    51   29   52 1
    52   30   31 2
    53   30   32 1
    54   32   53 1
    55   32   54 1
    56   32   55 1
@<TRIPOS>MOLECULE
CHEMBL254679
   45    45     0     0     0
SMALL
USER_CHARGES

@<TRIPOS>ATOM
      1 C1         -0.0779    1.3905    0.0226 C.3       1 <0>        -0.1417
      2 C2         -0.0835   -0.1123   -0.0894 C.2       1 <0>        -0.1228
      3 C3          0.5128   -0.6961   -1.0992 C.2       1 <0>        -0.1756
      4 C4          1.2046    0.1352   -2.1487 C.3       1 <0>        -0.0705
      5 H1          1.1044    1.1972   -1.9250 H         1 <0>         0.1106
      6 C5          0.6427   -0.1837   -3.5592 C.3       1 <0>        -0.1050
      7 C6          1.8432    0.1868   -4.4654 C.3       1 <0>        -0.0505
      8 H2          1.8661    1.2618   -4.6441 H         1 <0>         0.1348
      9 N1          3.0370   -0.2335   -3.7012 N.4       1 <0>        -0.4904
     10 C7          2.6918   -0.2600   -2.2649 C.3       1 <0>         0.0213
     11 H3          2.8410   -1.2636   -1.8667 H         1 <0>         0.1433
     12 C8          3.5579    0.7415   -1.4983 C.3       1 <0>         0.1161
     13 H4          3.3909    1.7435   -1.8936 H         1 <0>         0.1103
     14 C9          5.0329    0.3688   -1.6600 C.3       1 <0>         0.0946
     15 H5          5.2774    0.3045   -2.7203 H         1 <0>         0.0629
     16 C10         5.2893   -0.9634   -1.0038 C.2       1 <0>        -0.1656
     17 C11         5.7387   -1.9679   -1.7144 C.2       1 <0>        -0.1632
     18 O1          5.8472    1.3681   -1.0432 O.3       1 <0>        -0.3493
     19 C12         6.2309    2.4284   -1.9210 C.3       1 <0>         0.0315
     20 N2          3.1992    0.7107   -0.0782 N.am      1 <0>        -0.7139
     21 C13         3.4234    1.7901    0.6970 C.2       1 <0>         0.5207
     22 O2          3.9221    2.7870    0.2190 O.2       1 <0>        -0.5221
     23 C14         3.0545    1.7584    2.1578 C.3       1 <0>        -0.1720
     24 C15         1.7642   -0.5597   -5.7721 C.2       1 <0>         0.4958
     25 O3          0.9172   -0.2589   -6.5958 O.co2     1 <0>        -0.6304
     26 O4          2.5474   -1.4645   -6.0055 O.co2     1 <0>        -0.6690
     27 H6          0.9506    1.7465    0.0826 H         1 <0>         0.0691
     28 H7         -0.5612    1.8221   -0.8539 H         1 <0>         0.0703
     29 H8         -0.6190    1.6900    0.9202 H         1 <0>         0.0668
     30 H9         -0.5793   -0.7080    0.6628 H         1 <0>         0.1202
     31 H10         0.5088   -1.7731   -1.1794 H         1 <0>         0.1223
     32 H11         0.3959   -1.2414   -3.6512 H         1 <0>         0.0964
     33 H12        -0.2233    0.4387   -3.7844 H         1 <0>         0.1132
     34 H13         3.3250   -1.1532   -4.0000 H         1 <0>         0.4347
     35 H14         5.1024   -1.0900    0.0524 H         1 <0>         0.1234
     36 H15         5.9224   -2.9226   -1.2441 H         1 <0>         0.1144
     37 H16         5.9256   -1.8414   -2.7706 H         1 <0>         0.1001
     38 H17         5.3401    2.8733   -2.3645 H         1 <0>         0.0430
     39 H18         6.7742    3.1874   -1.3582 H         1 <0>         0.0935
     40 H19         6.8710    2.0334   -2.7099 H         1 <0>         0.0423
     41 H20         2.8004   -0.0866    0.3041 H         1 <0>         0.4058
     42 H21         2.6229    0.7879    2.4026 H         1 <0>         0.0762
     43 H22         3.9472    1.9218    2.7616 H         1 <0>         0.0986
     44 H23         2.3266    2.5427    2.3658 H         1 <0>         0.0975
     45 H24         3.7875    0.4230   -3.8555 H         1 <0>         0.4124
@<TRIPOS>BOND
     1    1    2 1
     2    1   27 1
     3    1   28 1
     4    1   29 1
     5    2    3 2
     6    2   30 1
     7    3    4 1
     8    3   31 1
     9    4    5 1
    10    4   10 1
    11    4    6 1
    12    6    7 1
    13    6   32 1
    14    6   33 1
    15    7    8 1
    16    7    9 1
    17    7   24 1
    18    9   10 1
    19    9   34 1
    20    9   45 1
    21   10   11 1
    22   10   12 1
    23   12   13 1
    24   12   14 1
    25   12   20 1
    26   14   15 1
    27   14   16 1
    28   14   18 1
    29   16   17 2
    30   16   35 1
    31   17   36 1
    32   17   37 1
    33   18   19 1
    34   19   38 1
    35   19   39 1
    36   19   40 1
    37   20   21 am
    38   20   41 1
    39   21   22 2
    40   21   23 1
    41   23   42 1
    42   23   43 1
    43   23   44 1
    44   24   25 2
    45   24   26 1
@<TRIPOS>MOLECULE
CHEMBL318452
   60    61     0     0     0
SMALL
USER_CHARGES

@<TRIPOS>ATOM
      1 C1          1.9753    1.5835   -2.8674 C.3       1 <0>        -0.1528
      2 C2          1.3305    0.3506   -2.2310 C.3       1 <0>        -0.1511
      3 C3          2.0625   -0.9079   -2.7015 C.3       1 <0>         0.0982
      4 N1          1.3575   -2.0949   -2.2113 N.am      1 <0>        -0.6077
      5 C4          0.3405   -2.7395   -3.0459 C.3       1 <0>         0.1261
      6 C5          1.0005   -3.8074   -3.9205 C.3       1 <0>        -0.0980
      7 C6         -0.0456   -4.4705   -4.7790 C.ar      1 <0>        -0.0809
      8 C7         -0.7149   -5.5872   -4.3142 C.ar      1 <0>        -0.1114
      9 C8         -1.6745   -6.1955   -5.1016 C.ar      1 <0>        -0.1170
     10 C9         -1.9652   -5.6868   -6.3537 C.ar      1 <0>        -0.1232
     11 C10        -1.2966   -4.5696   -6.8181 C.ar      1 <0>        -0.1200
     12 C11        -0.3400   -3.9588   -6.0289 C.ar      1 <0>        -0.1172
     13 C12         1.6445   -2.5939   -0.9927 C.2       1 <0>         0.5284
     14 O1          1.0179   -3.5384   -0.5612 O.2       1 <0>        -0.4826
     15 C13         2.7440   -1.9781   -0.1662 C.3       1 <0>         0.0544
     16 H1          3.2427   -1.1980   -0.7413 H         1 <0>         0.0967
     17 C14         2.1525   -1.3773    1.1161 C.3       1 <0>         0.1116
     18 H2          1.7092   -2.1677    1.7219 H         1 <0>         0.1318
     19 C15         3.2850   -0.7017    1.8965 C.3       1 <0>         0.1760
     20 H3          3.5764    0.2186    1.3904 H         1 <0>         0.1070
     21 C16         4.4668   -1.6302    1.9690 C.2       1 <0>        -0.3540
     22 C17         4.6019   -2.6690    1.1557 C.2       1 <0>         0.1224
     23 O2          3.6908   -2.9846    0.2030 O.3       1 <0>        -0.2611
     24 C18         5.7958   -3.5178    1.2935 C.2       1 <0>         0.5254
     25 O3          6.6362   -3.2581    2.1440 O.co2     1 <0>        -0.6547
     26 O4          5.9482   -4.4833    0.5575 O.co2     1 <0>        -0.6393
     27 N2          2.8254   -0.3893    3.2520 N.pl3     1 <0>        -0.6384
     28 C19         3.3850    0.5778    3.9232 C.cat     1 <0>         0.7416
     29 N3          4.4065    1.3047    3.3590 N.pl3     1 <0>        -0.8117
     30 N4          2.9537    0.8710    5.1952 N.pl3     1 <0>        -0.8181
     31 N5          1.1296   -0.3868    0.7714 N.am      1 <0>        -0.7352
     32 C20        -0.1679   -0.7478    0.7201 C.2       1 <0>         0.5052
     33 O5         -0.4998   -1.8659    1.0524 O.2       1 <0>        -0.5012
     34 C21        -1.2062    0.2380    0.2498 C.3       1 <0>        -0.1705
     35 H4          2.9966    1.6892   -2.5014 H         1 <0>         0.0566
     36 H5          1.9878    1.4685   -3.9512 H         1 <0>         0.0611
     37 H6          1.4009    2.4713   -2.6028 H         1 <0>         0.0590
     38 H7          1.3970    0.4252   -1.1456 H         1 <0>         0.0623
     39 H8          0.2833    0.2941   -2.5278 H         1 <0>         0.0707
     40 H9          2.0905   -0.9260   -3.7910 H         1 <0>         0.0892
     41 H10         3.0805   -0.9032   -2.3119 H         1 <0>         0.0810
     42 H11        -0.4107   -3.2055   -2.4082 H         1 <0>         0.0881
     43 H12        -0.1350   -1.9924   -3.6813 H         1 <0>         0.0793
     44 H13         1.7517   -3.3414   -4.5581 H         1 <0>         0.0748
     45 H14         1.4761   -4.5545   -3.2851 H         1 <0>         0.0806
     46 H15        -0.4878   -5.9846   -3.3360 H         1 <0>         0.1238
     47 H16        -2.1968   -7.0683   -4.7388 H         1 <0>         0.1224
     48 H17        -2.7144   -6.1624   -6.9692 H         1 <0>         0.1209
     49 H18        -1.5234   -4.1724   -7.7964 H         1 <0>         0.1212
     50 H19         0.1797   -3.0837   -6.3902 H         1 <0>         0.1198
     51 H20         5.2316   -1.4440    2.7085 H         1 <0>         0.1529
     52 H21         4.7108    1.0978    2.4615 H         1 <0>         0.4387
     53 H22         4.8230    2.0244    3.8585 H         1 <0>         0.4349
     54 H23         2.2330    0.3582    5.5933 H         1 <0>         0.4362
     55 H24         3.3702    1.5907    5.6947 H         1 <0>         0.4358
     56 H25         1.3862    0.5289    0.5801 H         1 <0>         0.4016
     57 H26        -0.7146    1.1507   -0.0869 H         1 <0>         0.0761
     58 H27        -1.7716   -0.1956   -0.5751 H         1 <0>         0.0995
     59 H28        -1.8835    0.4719    1.0712 H         1 <0>         0.0971
     60 H29         2.1047   -0.9021    3.6500 H         1 <0>         0.4376
@<TRIPOS>BOND
     1    1    2 1
     2    1   35 1
     3    1   36 1
     4    1   37 1
     5    2    3 1
     6    2   38 1
     7    2   39 1
     8    3    4 1
     9    3   40 1
    10    3   41 1
    11    4    5 1
    12    4   13 am
    13    5    6 1
    14    5   42 1
    15    5   43 1
    16    6    7 1
    17    6   44 1
    18    6   45 1
    19    7   12 ar
    20    7    8 ar
    21    8    9 ar
    22    8   46 1
    23    9   10 ar
    24    9   47 1
    25   10   11 ar
    26   10   48 1
    27   11   12 ar
    28   11   49 1
    29   12   50 1
    30   13   14 2
    31   13   15 1
    32   15   16 1
    33   15   23 1
    34   15   17 1
    35   17   18 1
    36   17   19 1
    37   17   31 1
    38   19   20 1
    39   19   21 1
    40   19   27 1
    41   21   22 2
    42   21   51 1
    43   22   23 1
    44   22   24 1
    45   24   25 2
    46   24   26 1
    47   27   28 2
    48   27   60 1
    49   28   29 1
    50   28   30 1
    51   29   52 1
    52   29   53 1
    53   30   54 1
    54   30   55 1
    55   31   32 am
    56   31   56 1
    57   32   33 2
    58   32   34 1
    59   34   57 1
    60   34   58 1
    61   34   59 1
@<TRIPOS>MOLECULE
CHEMBL254884
   48    48     0     0     0
SMALL
USER_CHARGES

@<TRIPOS>ATOM
      1 C1         -0.5158    0.8607   -0.0799 C.3       1 <0>        -0.1335
      2 C2          0.0088   -0.4715    0.3904 C.2       1 <0>        -0.1450
      3 C3          0.8531   -1.1426   -0.3531 C.2       1 <0>        -0.1501
      4 C4          1.2998   -0.5824   -1.6789 C.3       1 <0>        -0.0668
      5 H1          0.8196    0.3769   -1.8719 H         1 <0>         0.1040
      6 C5          1.0038   -1.5846   -2.8256 C.3       1 <0>        -0.1050
      7 C6          2.0734   -1.1864   -3.8730 C.3       1 <0>        -0.0496
      8 H2          1.7376   -0.3243   -4.4494 H         1 <0>         0.1321
      9 N1          3.2701   -0.8391   -3.0774 N.4       1 <0>        -0.4917
     10 C7          2.8360   -0.4420   -1.7222 C.3       1 <0>        -0.0069
     11 H3          3.2895   -1.0997   -0.9806 H         1 <0>         0.1842
     12 C8          3.2339    1.0096   -1.4477 C.3       1 <0>         0.1146
     13 H4          2.7758    1.6592   -2.1935 H         1 <0>         0.1050
     14 C9          4.7563    1.1436   -1.5208 C.3       1 <0>         0.0696
     15 H5          5.0994    0.8527   -2.5137 H         1 <0>         0.0640
     16 C10         5.3993    0.2338   -0.4722 C.3       1 <0>        -0.0872
     17 C11         6.8971    0.2584   -0.6364 C.2       1 <0>        -0.1652
     18 C12         7.6624    0.5715    0.3797 C.2       1 <0>        -0.1746
     19 O1          5.1278    2.4999   -1.2669 O.3       1 <0>        -0.3590
     20 C13         5.0925    3.3385   -2.4234 C.3       1 <0>         0.0196
     21 N2          2.7731    1.3981   -0.1124 N.am      1 <0>        -0.7072
     22 C14         2.8902    0.5372    0.9179 C.2       1 <0>         0.5247
     23 O2          3.4245   -0.5388    0.7513 O.2       1 <0>        -0.5328
     24 C15         2.3572    0.9115    2.2769 C.3       1 <0>        -0.1731
     25 C16         2.3680   -2.3462   -4.7890 C.2       1 <0>         0.4948
     26 O3          1.5416   -2.6964   -5.6143 O.co2     1 <0>        -0.6336
     27 O4          3.4327   -2.9343   -4.7049 O.co2     1 <0>        -0.6683
     28 H6          0.3169    1.5499   -0.2204 H         1 <0>         0.0636
     29 H7         -1.0431    0.7304   -1.0250 H         1 <0>         0.0681
     30 H8         -1.2005    1.2652    0.6654 H         1 <0>         0.0651
     31 H9         -0.3114   -0.8730    1.3406 H         1 <0>         0.1165
     32 H10         1.2290   -2.0973   -0.0160 H         1 <0>         0.1209
     33 H11         1.1472   -2.6125   -2.4925 H         1 <0>         0.0950
     34 H12        -0.0019   -1.4404   -3.2203 H         1 <0>         0.1108
     35 H13         3.8828   -1.6386   -3.0190 H         1 <0>         0.4349
     36 H14         5.1373    0.5870    0.5251 H         1 <0>         0.0874
     37 H15         5.0361   -0.7855   -0.6037 H         1 <0>         0.0973
     38 H16         7.3397    0.0178   -1.5917 H         1 <0>         0.1059
     39 H17         8.7358    0.5891    0.2620 H         1 <0>         0.0977
     40 H18         7.2199    0.8120    1.3351 H         1 <0>         0.0948
     41 H19         5.4715    4.3277   -2.1666 H         1 <0>         0.0939
     42 H20         5.7134    2.9035   -3.2067 H         1 <0>         0.0475
     43 H21         4.0657    3.4238   -2.7791 H         1 <0>         0.0411
     44 H22         2.3837    2.2750    0.0301 H         1 <0>         0.4132
     45 H23         1.9158    1.9071    2.2325 H         1 <0>         0.0774
     46 H24         1.5981    0.1907    2.5806 H         1 <0>         0.1001
     47 H25         3.1723    0.9074    3.0006 H         1 <0>         0.0983
     48 H26         3.7570   -0.0707   -3.5141 H         1 <0>         0.4075
@<TRIPOS>BOND
     1    1    2 1
     2    1   28 1
     3    1   29 1
     4    1   30 1
     5    2    3 2
     6    2   31 1
     7    3    4 1
     8    3   32 1
     9    4    5 1
    10    4   10 1
    11    4    6 1
    12    6    7 1
    13    6   33 1
    14    6   34 1
    15    7    8 1
    16    7    9 1
    17    7   25 1
    18    9   10 1
    19    9   35 1
    20    9   48 1
    21   10   11 1
    22   10   12 1
    23   12   13 1
    24   12   14 1
    25   12   21 1
    26   14   15 1
    27   14   16 1
    28   14   19 1
    29   16   17 1
    30   16   36 1
    31   16   37 1
    32   17   18 2
    33   17   38 1
    34   18   39 1
    35   18   40 1
    36   19   20 1
    37   20   41 1
    38   20   42 1
    39   20   43 1
    40   21   22 am
    41   21   44 1
    42   22   23 2
    43   22   24 1
    44   24   45 1
    45   24   46 1
    46   24   47 1
    47   25   26 2
    48   25   27 1
@<TRIPOS>MOLECULE
CHEMBL400552
   46    47     0     0     0
SMALL
USER_CHARGES

@<TRIPOS>ATOM
      1 C1         -0.0094    1.4880    0.0361 C.3       1 <0>        -0.1341
      2 C2          0.0166   -0.0188    0.0263 C.2       1 <0>        -0.1410
      3 C3          0.5787   -0.6577   -0.9697 C.2       1 <0>        -0.1556
      4 C4          1.1993    0.1140   -2.1056 C.3       1 <0>        -0.0690
      5 H1          1.0837    1.1866   -1.9495 H         1 <0>         0.1061
      6 C5          0.5792   -0.3129   -3.4621 C.3       1 <0>        -0.1059
      7 C6          1.7259    0.0200   -4.4489 C.3       1 <0>        -0.0497
      8 H2          1.7140    1.0805   -4.7008 H         1 <0>         0.1313
      9 N1          2.9646   -0.3213   -3.7174 N.4       1 <0>        -0.4843
     10 C7          2.6886   -0.2564   -2.2675 C.3       1 <0>         0.0155
     11 H3          2.8811   -1.2269   -1.8101 H         1 <0>         0.1496
     12 C8          3.5651    0.8136   -1.6136 C.3       1 <0>         0.1500
     13 H4          3.4530    1.7543   -2.1526 H         1 <0>         0.1151
     14 C9          5.0291    0.3712   -1.6588 C.3       1 <0>         0.0568
     15 H5          5.1293   -0.6133   -1.2019 H         1 <0>         0.0992
     16 C10         5.8967    1.3814   -0.9027 C.3       1 <0>        -0.1104
     17 C11         7.3479    1.1212   -1.1990 C.2       1 <0>        -0.1464
     18 C12         7.7364    0.3957   -2.2051 C.2       1 <0>        -0.1936
     19 C13         6.7762   -0.2564   -3.1589 C.3       1 <0>         0.0950
     20 O1          5.4759    0.3196   -3.0194 O.3       1 <0>        -0.4002
     21 N2          3.1533    0.9974   -0.2197 N.am      1 <0>        -0.7157
     22 C14         3.2072   -0.0383    0.6410 C.2       1 <0>         0.5224
     23 O2          3.5966   -1.1224    0.2617 O.2       1 <0>        -0.5320
     24 C15         2.7836    0.1508    2.0749 C.3       1 <0>        -0.1738
     25 C16         1.6036   -0.8160   -5.6968 C.2       1 <0>         0.4956
     26 O3          0.7113   -0.5905   -6.4965 O.co2     1 <0>        -0.6365
     27 O4          2.3968   -1.7178   -5.9066 O.co2     1 <0>        -0.6685
     28 H6          1.0117    1.8691    0.0215 H         1 <0>         0.0616
     29 H7         -0.5441    1.8479   -0.8429 H         1 <0>         0.0706
     30 H8         -0.5145    1.8368    0.9368 H         1 <0>         0.0665
     31 H9         -0.4281   -0.5718    0.8404 H         1 <0>         0.1167
     32 H10         0.5973   -1.7375   -0.9767 H         1 <0>         0.1181
     33 H11         0.3544   -1.3794   -3.4702 H         1 <0>         0.0935
     34 H12        -0.3115    0.2741   -3.6862 H         1 <0>         0.1106
     35 H13         3.2606   -1.2530   -3.9671 H         1 <0>         0.4321
     36 H14         5.6370    2.3915   -1.2192 H         1 <0>         0.0851
     37 H15         5.7212    1.2806    0.1684 H         1 <0>         0.0837
     38 H16         8.0959    1.5535   -0.5509 H         1 <0>         0.1152
     39 H17         8.7957    0.2558   -2.3625 H         1 <0>         0.1228
     40 H18         7.1278   -0.1123   -4.1805 H         1 <0>         0.1154
     41 H19         6.7228   -1.3238   -2.9445 H         1 <0>         0.0730
     42 H20         2.8419    1.8645    0.0837 H         1 <0>         0.4137
     43 H21         2.4672    1.1827    2.2272 H         1 <0>         0.0792
     44 H22         1.9548   -0.5203    2.3004 H         1 <0>         0.1011
     45 H23         3.6223   -0.0732    2.7341 H         1 <0>         0.0993
     46 H24         3.6905    0.3389   -3.9523 H         1 <0>         0.4216
@<TRIPOS>BOND
     1    1    2 1
     2    1   28 1
     3    1   29 1
     4    1   30 1
     5    2    3 2
     6    2   31 1
     7    3    4 1
     8    3   32 1
     9    4    5 1
    10    4   10 1
    11    4    6 1
    12    6    7 1
    13    6   33 1
    14    6   34 1
    15    7    8 1
    16    7    9 1
    17    7   25 1
    18    9   10 1
    19    9   35 1
    20    9   46 1
    21   10   11 1
    22   10   12 1
    23   12   13 1
    24   12   14 1
    25   12   21 1
    26   14   15 1
    27   14   20 1
    28   14   16 1
    29   16   17 1
    30   16   36 1
    31   16   37 1
    32   17   18 2
    33   17   38 1
    34   18   19 1
    35   18   39 1
    36   19   20 1
    37   19   40 1
    38   19   41 1
    39   21   22 am
    40   21   42 1
    41   22   23 2
    42   22   24 1
    43   24   43 1
    44   24   44 1
    45   24   45 1
    46   25   26 2
    47   25   27 1
@<TRIPOS>MOLECULE
CHEMBL254885
   46    47     0     0     0
SMALL
USER_CHARGES

@<TRIPOS>ATOM
      1 C1         -0.0905    1.5154   -0.1835 C.3       1 <0>        -0.1410
      2 C2         -0.0670    0.0085   -0.1781 C.2       1 <0>        -0.1262
      3 C3          0.5525   -0.6403   -1.1327 C.2       1 <0>        -0.1716
      4 C4          1.2418    0.1201   -2.2362 C.3       1 <0>        -0.0722
      5 H1          1.1192    1.1942   -2.0971 H         1 <0>         0.1099
      6 C5          0.7034   -0.3183   -3.6236 C.3       1 <0>        -0.1049
      7 C6          1.9080    0.0038   -4.5427 C.3       1 <0>        -0.0503
      8 H2          1.9133    1.0619   -4.8044 H         1 <0>         0.1348
      9 N1          3.0997   -0.3326   -3.7351 N.4       1 <0>        -0.4892
     10 C7          2.7373   -0.2540   -2.3050 C.3       1 <0>         0.0229
     11 H3          2.9001   -1.2206   -1.8282 H         1 <0>         0.1483
     12 C8          3.5752    0.8206   -1.6094 C.3       1 <0>         0.1432
     13 H4          3.4211    1.7790   -2.1053 H         1 <0>         0.1256
     14 C9          5.0554    0.4404   -1.6832 C.3       1 <0>         0.0607
     15 H5          5.3632    0.3642   -2.7260 H         1 <0>         0.0680
     16 C10         5.8972    1.5045   -0.9734 C.3       1 <0>        -0.1136
     17 C11         7.2975    0.9921   -0.7778 C.2       1 <0>        -0.1432
     18 C12         7.6006   -0.2680   -0.8777 C.2       1 <0>        -0.2000
     19 C13         6.5866   -1.3270   -1.2052 C.3       1 <0>         0.0878
     20 O1          5.2645   -0.8153   -1.0252 O.3       1 <0>        -0.3695
     21 N2          3.1674    0.9256   -0.2063 N.am      1 <0>        -0.7104
     22 C14         3.2561    2.1079    0.4347 C.2       1 <0>         0.5183
     23 O2          3.5800    3.1052   -0.1747 O.2       1 <0>        -0.5351
     24 C15         2.9528    2.1907    1.9085 C.3       1 <0>        -0.1745
     25 C16         1.8590   -0.8434   -5.7881 C.2       1 <0>         0.4957
     26 O3          1.0168   -0.6239   -6.6420 O.co2     1 <0>        -0.6319
     27 O4          2.6615   -1.7482   -5.9417 O.co2     1 <0>        -0.6694
     28 H6          0.9304    1.8948   -0.1402 H         1 <0>         0.0676
     29 H7         -0.5707    1.8680   -1.0962 H         1 <0>         0.0704
     30 H8         -0.6481    1.8732    0.6821 H         1 <0>         0.0663
     31 H9         -0.5609   -0.5364    0.6128 H         1 <0>         0.1196
     32 H10         0.5693   -1.7202   -1.1288 H         1 <0>         0.1221
     33 H11         0.4773   -1.3845   -3.6356 H         1 <0>         0.0958
     34 H12        -0.1711    0.2679   -3.9061 H         1 <0>         0.1123
     35 H13         3.4084   -1.2670   -3.9582 H         1 <0>         0.4355
     36 H14         5.9235    2.4102   -1.5793 H         1 <0>         0.0893
     37 H15         5.4544    1.7300   -0.0033 H         1 <0>         0.0897
     38 H16         8.0812    1.6980   -0.5458 H         1 <0>         0.1151
     39 H17         8.6263   -0.5666   -0.7187 H         1 <0>         0.1204
     40 H18         6.7139   -1.6411   -2.2411 H         1 <0>         0.0681
     41 H19         6.7349   -2.1845   -0.5488 H         1 <0>         0.1108
     42 H20         2.8335    0.1442    0.2615 H         1 <0>         0.4121
     43 H21         2.6821    1.2023    2.2798 H         1 <0>         0.0798
     44 H22         3.8332    2.5503    2.4410 H         1 <0>         0.0999
     45 H23         2.1236    2.8793    2.0707 H         1 <0>         0.1002
     46 H24         3.8398    0.3243   -3.9320 H         1 <0>         0.4128
@<TRIPOS>BOND
     1    1    2 1
     2    1   28 1
     3    1   29 1
     4    1   30 1
     5    2    3 2
     6    2   31 1
     7    3    4 1
     8    3   32 1
     9    4    5 1
    10    4   10 1
    11    4    6 1
    12    6    7 1
    13    6   33 1
    14    6   34 1
    15    7    8 1
    16    7    9 1
    17    7   25 1
    18    9   10 1
    19    9   35 1
    20    9   46 1
    21   10   11 1
    22   10   12 1
    23   12   13 1
    24   12   14 1
    25   12   21 1
    26   14   15 1
    27   14   20 1
    28   14   16 1
    29   16   17 1
    30   16   36 1
    31   16   37 1
    32   17   18 2
    33   17   38 1
    34   18   19 1
    35   18   39 1
    36   19   20 1
    37   19   40 1
    38   19   41 1
    39   21   22 am
    40   21   42 1
    41   22   23 2
    42   22   24 1
    43   24   43 1
    44   24   44 1
    45   24   45 1
    46   25   26 2
    47   25   27 1
@<TRIPOS>MOLECULE
CHEMBL430814
   57    58     0     0     0
SMALL
USER_CHARGES

@<TRIPOS>ATOM
      1 C1          0.2135    1.4044   -0.1762 C.3       1 <0>        -0.1538
      2 C2          0.1619   -0.0987    0.1049 C.3       1 <0>        -0.1222
      3 C3         -1.2947   -0.5370    0.2695 C.3       1 <0>         0.0876
      4 H1         -1.8654   -0.2388   -0.6100 H         1 <0>         0.0680
      5 C4         -1.3551   -2.0579    0.4251 C.3       1 <0>        -0.1350
      6 C5         -2.8164   -2.5109    0.4444 C.3       1 <0>        -0.0916
      7 C6         -3.4519   -2.2417   -0.9211 C.3       1 <0>        -0.1249
      8 C7         -4.9131   -2.6948   -0.9018 C.3       1 <0>        -0.1157
      9 C8         -4.9788   -4.1922   -0.5949 C.3       1 <0>        -0.1219
     10 C9         -4.3433   -4.4614    0.7706 C.3       1 <0>        -0.1156
     11 C10        -2.8821   -4.0084    0.7513 C.3       1 <0>        -0.1153
     12 O1         -1.8504    0.0831    1.4308 O.3       1 <0>        -0.3438
     13 C11        -3.1965    0.5322    1.2621 C.3       1 <0>         0.1144
     14 H2         -3.7390   -0.1784    0.6386 H         1 <0>         0.0811
     15 C12        -3.1925    1.8771    0.5956 C.2       1 <0>        -0.1640
     16 C13        -3.9696    2.8775    0.9602 C.2       1 <0>        -0.1599
     17 C14        -4.9513    2.8011    2.0931 C.3       1 <0>        -0.0815
     18 C15        -5.2214    1.3400    2.4582 C.3       1 <0>         0.0195
     19 H3         -5.7910    0.8626    1.6609 H         1 <0>         0.1491
     20 C16        -3.8747    0.6275    2.6303 C.3       1 <0>         0.1299
     21 H4         -3.2427    1.1950    3.3135 H         1 <0>         0.1299
     22 N1         -4.0979   -0.7185    3.1638 N.am      1 <0>        -0.7531
     23 C17        -3.1548   -1.3062    3.9263 C.2       1 <0>         0.5165
     24 O2         -2.1608   -0.6885    4.2447 O.2       1 <0>        -0.4998
     25 C18        -3.3352   -2.7308    4.3834 C.3       1 <0>        -0.1761
     26 N2         -5.9818    1.2774    3.7135 N.4       1 <0>        -0.6300
     27 C19        -3.8696    4.1376    0.2157 C.2       1 <0>         0.5113
     28 O3         -3.0809    4.2378   -0.7146 O.co2     1 <0>        -0.6711
     29 O4         -4.5750    5.0887    0.5249 O.co2     1 <0>        -0.6878
     30 H5          1.2525    1.7322   -0.2105 H         1 <0>         0.0538
     31 H6         -0.2646    1.6116   -1.1336 H         1 <0>         0.0552
     32 H7         -0.3106    1.9403    0.6152 H         1 <0>         0.0647
     33 H8          0.6123   -0.6396   -0.7274 H         1 <0>         0.0720
     34 H9          0.7125   -0.3162    1.0201 H         1 <0>         0.0686
     35 H10        -0.8396   -2.5295   -0.4115 H         1 <0>         0.0729
     36 H11        -0.8727   -2.3470    1.3588 H         1 <0>         0.0700
     37 H12        -3.3579   -1.9585    1.2124 H         1 <0>         0.0739
     38 H13        -3.4051   -1.1749   -1.1397 H         1 <0>         0.0628
     39 H14        -2.9104   -2.7941   -1.6891 H         1 <0>         0.0665
     40 H15        -5.4546   -2.1424   -0.1338 H         1 <0>         0.0526
     41 H16        -5.3659   -2.5030   -1.8746 H         1 <0>         0.0634
     42 H17        -6.0199   -4.5150   -0.5812 H         1 <0>         0.0601
     43 H18        -4.4373   -4.7446   -1.3629 H         1 <0>         0.0636
     44 H19        -4.8849   -3.9090    1.5386 H         1 <0>         0.0544
     45 H20        -4.3901   -5.5282    0.9892 H         1 <0>         0.0617
     46 H21        -2.3406   -4.5607   -0.0167 H         1 <0>         0.0639
     47 H22        -2.4294   -4.2001    1.7241 H         1 <0>         0.0591
     48 H23        -2.5138    2.0343   -0.2296 H         1 <0>         0.1374
     49 H24        -4.5436    3.3208    2.9602 H         1 <0>         0.0958
     50 H25        -5.8851    3.2776    1.7948 H         1 <0>         0.1104
     51 H26        -4.9246   -1.1868    2.9681 H         1 <0>         0.3958
     52 H27        -2.8231   -3.4014    3.6934 H         1 <0>         0.1006
     53 H28        -2.9155   -2.8478    5.3825 H         1 <0>         0.0974
     54 H29        -4.3976   -2.9737    4.4049 H         1 <0>         0.0769
     55 H30        -6.8595    1.7621    3.5996 H         1 <0>         0.4401
     56 H31        -6.1586    0.3131    3.9520 H         1 <0>         0.4267
     57 H32        -5.4497    1.7142    4.4512 H         1 <0>         0.4356
@<TRIPOS>BOND
     1    1    2 1
     2    1   30 1
     3    1   31 1
     4    1   32 1
     5    2    3 1
     6    2   33 1
     7    2   34 1
     8    3    4 1
     9    3    5 1
    10    3   12 1
    11    5    6 1
    12    5   35 1
    13    5   36 1
    14    6   11 1
    15    6    7 1
    16    6   37 1
    17    7    8 1
    18    7   38 1
    19    7   39 1
    20    8    9 1
    21    8   40 1
    22    8   41 1
    23    9   10 1
    24    9   42 1
    25    9   43 1
    26   10   11 1
    27   10   44 1
    28   10   45 1
    29   11   46 1
    30   11   47 1
    31   12   13 1
    32   13   14 1
    33   13   20 1
    34   13   15 1
    35   15   16 2
    36   15   48 1
    37   16   17 1
    38   16   27 1
    39   17   18 1
    40   17   49 1
    41   17   50 1
    42   18   19 1
    43   18   20 1
    44   18   26 1
    45   20   21 1
    46   20   22 1
    47   22   23 am
    48   22   51 1
    49   23   24 2
    50   23   25 1
    51   25   52 1
    52   25   53 1
    53   25   54 1
    54   26   55 1
    55   26   56 1
    56   26   57 1
    57   27   28 2
    58   27   29 1
@<TRIPOS>MOLECULE
CHEMBL193303
   43    43     0     0     0
SMALL
USER_CHARGES

@<TRIPOS>ATOM
      1 C1         -0.0184    1.5028    0.0103 C.3       1 <0>        -0.1771
      2 C2          0.0021   -0.0041    0.0020 C.2       1 <0>         0.5216
      3 O1          1.0605   -0.5961   -0.0113 O.2       1 <0>        -0.5483
      4 N1         -1.1558   -0.6938    0.0094 N.am      1 <0>        -0.7223
      5 C3         -1.1360   -2.1586    0.0013 C.3       1 <0>         0.1105
      6 C4         -1.0471   -2.6662   -1.4417 C.3       1 <0>         0.1753
      7 H1         -1.7706   -2.1340   -2.0593 H         1 <0>         0.0935
      8 C5         -1.3481   -4.1401   -1.4739 C.2       1 <0>        -0.3475
      9 C6         -1.9597   -4.7598   -0.4735 C.2       1 <0>         0.1096
     10 O2         -2.3546   -4.1249    0.6570 O.3       1 <0>        -0.2565
     11 C7         -2.4324   -2.6972    0.6214 C.3       1 <0>         0.0508
     12 H2         -3.2846   -2.3907    0.0149 H         1 <0>         0.0874
     13 C8         -2.5884   -2.1537    2.0431 C.3       1 <0>         0.0920
     14 H3         -2.7162   -1.0719    2.0066 H         1 <0>         0.1195
     15 C9         -3.8146   -2.7902    2.7007 C.3       1 <0>         0.0753
     16 C10        -3.8997   -2.3431    4.1614 C.3       1 <0>         0.0499
     17 O3         -5.1057   -2.8424    4.7429 O.3       1 <0>        -0.5623
     18 O4         -3.7005   -4.2135    2.6440 O.3       1 <0>        -0.5114
     19 O5         -1.4214   -2.4701    2.8048 O.3       1 <0>        -0.5501
     20 C11        -2.2209   -6.2025   -0.5961 C.2       1 <0>         0.5240
     21 O6         -1.8756   -6.8031   -1.6047 O.co2     1 <0>        -0.6626
     22 O7         -2.7834   -6.8016    0.3103 O.co2     1 <0>        -0.6382
     23 N2          0.3031   -2.4320   -1.9597 N.pl3     1 <0>        -0.6679
     24 C12         0.5074   -2.3105   -3.3067 C.cat     1 <0>         0.7396
     25 N3          1.7350   -2.0976   -3.7776 N.pl3     1 <0>        -0.8001
     26 N4         -0.5213   -2.4053   -4.1475 N.pl3     1 <0>        -0.7968
     27 H4          1.0042    1.8801    0.0026 H         1 <0>         0.0964
     28 H5         -0.5455    1.8639   -0.8728 H         1 <0>         0.0890
     29 H6         -0.5286    1.8543    0.9071 H         1 <0>         0.0944
     30 H7         -2.0023   -0.2203    0.0200 H         1 <0>         0.4057
     31 H8         -0.2790   -2.5177    0.5713 H         1 <0>         0.1215
     32 H9         -1.0564   -4.7130   -2.3416 H         1 <0>         0.1438
     33 H10        -4.7145   -2.4765    2.1717 H         1 <0>         0.1100
     34 H11        -3.0428   -2.7327    4.7111 H         1 <0>         0.0553
     35 H12        -3.8972   -1.2541    4.2088 H         1 <0>         0.0492
     36 H13        -5.2262   -2.5969    5.6704 H         1 <0>         0.3799
     37 H14        -2.9205   -4.5639    3.0956 H         1 <0>         0.3714
     38 H15        -1.2454   -3.4180    2.8793 H         1 <0>         0.3866
     39 H16         1.0522   -2.3630   -1.3473 H         1 <0>         0.4393
     40 H17         2.4841   -2.0286   -3.1653 H         1 <0>         0.4390
     41 H18        -1.4153   -2.5604   -3.8046 H         1 <0>         0.4398
     42 H19        -0.3764   -2.3192   -5.1028 H         1 <0>         0.4351
     43 H20         1.8799   -2.0114   -4.7328 H         1 <0>         0.4357
@<TRIPOS>BOND
     1    1    2 1
     2    1   27 1
     3    1   28 1
     4    1   29 1
     5    2    3 2
     6    2    4 am
     7    4    5 1
     8    4   30 1
     9    5   11 1
    10    5    6 1
    11    5   31 1
    12    6    7 1
    13    6    8 1
    14    6   23 1
    15    8    9 2
    16    8   32 1
    17    9   10 1
    18    9   20 1
    19   10   11 1
    20   11   12 1
    21   11   13 1
    22   13   14 1
    23   13   15 1
    24   13   19 1
    25   15   16 1
    26   15   18 1
    27   15   33 1
    28   16   17 1
    29   16   34 1
    30   16   35 1
    31   17   36 1
    32   18   37 1
    33   19   38 1
    34   20   21 2
    35   20   22 1
    36   23   24 1
    37   23   39 1
    38   24   25 2
    39   24   26 1
    40   25   40 1
    41   25   43 1
    42   26   41 1
    43   26   42 1
@<TRIPOS>MOLECULE
CHEMBL193303__1
   43    43     0     0     0
SMALL
USER_CHARGES

@<TRIPOS>ATOM
      1 C1         -0.0184    1.5028    0.0103 C.3       1 <0>        -0.1770
      2 C2          0.0021   -0.0041    0.0020 C.2       1 <0>         0.5215
      3 O1          1.0605   -0.5961   -0.0113 O.2       1 <0>        -0.5477
      4 N1         -1.1558   -0.6938    0.0094 N.am      1 <0>        -0.7220
      5 C3         -1.1360   -2.1586    0.0013 C.3       1 <0>         0.1106
      6 C4         -1.0471   -2.6662   -1.4417 C.3       1 <0>         0.1747
      7 H1         -1.7706   -2.1340   -2.0593 H         1 <0>         0.0951
      8 C5         -1.3481   -4.1401   -1.4739 C.2       1 <0>        -0.3410
      9 C6         -1.9597   -4.7598   -0.4735 C.2       1 <0>         0.1096
     10 O2         -2.3546   -4.1249    0.6570 O.3       1 <0>        -0.2757
     11 C7         -2.4324   -2.6972    0.6214 C.3       1 <0>         0.0512
     12 H2         -3.2846   -2.3907    0.0149 H         1 <0>         0.0943
     13 C8         -2.5884   -2.1537    2.0431 C.3       1 <0>         0.0981
     14 H3         -2.7162   -1.0719    2.0066 H         1 <0>         0.1135
     15 C9         -3.8146   -2.7902    2.7007 C.3       1 <0>         0.0764
     16 C10        -3.9706   -2.2468    4.1224 C.3       1 <0>         0.0491
     17 O3         -5.0445   -2.9256    4.7766 O.3       1 <0>        -0.5608
     18 O4         -4.9816   -2.4738    1.9391 O.3       1 <0>        -0.5365
     19 O5         -1.4214   -2.4701    2.8048 O.3       1 <0>        -0.5482
     20 C11        -2.2209   -6.2025   -0.5961 C.2       1 <0>         0.5250
     21 O6         -1.8756   -6.8031   -1.6047 O.co2     1 <0>        -0.6585
     22 O7         -2.7834   -6.8016    0.3103 O.co2     1 <0>        -0.6439
     23 N2          0.3031   -2.4320   -1.9597 N.pl3     1 <0>        -0.6683
     24 C12         0.5074   -2.3105   -3.3067 C.cat     1 <0>         0.7398
     25 N3          1.7350   -2.0976   -3.7776 N.pl3     1 <0>        -0.7997
     26 N4         -0.5213   -2.4053   -4.1475 N.pl3     1 <0>        -0.7967
     27 H4          1.0042    1.8801    0.0026 H         1 <0>         0.0966
     28 H5         -0.5455    1.8639   -0.8728 H         1 <0>         0.0892
     29 H6         -0.5286    1.8543    0.9071 H         1 <0>         0.0943
     30 H7         -2.0023   -0.2203    0.0200 H         1 <0>         0.4055
     31 H8         -0.2790   -2.5177    0.5713 H         1 <0>         0.1220
     32 H9         -1.0564   -4.7130   -2.3416 H         1 <0>         0.1457
     33 H10        -3.6868   -3.8721    2.7372 H         1 <0>         0.1262
     34 H11        -3.0464   -2.4094    4.6770 H         1 <0>         0.0638
     35 H12        -4.1868   -1.1792    4.0816 H         1 <0>         0.0448
     36 H13        -5.2009   -2.6313    5.6844 H         1 <0>         0.3803
     37 H14        -5.1575   -1.5259    1.8645 H         1 <0>         0.3661
     38 H15        -1.2454   -3.4180    2.8793 H         1 <0>         0.3929
     39 H16         1.0522   -2.3630   -1.3473 H         1 <0>         0.4396
     40 H17         2.4841   -2.0286   -3.1653 H         1 <0>         0.4391
     41 H18        -1.4153   -2.5604   -3.8046 H         1 <0>         0.4398
     42 H19        -0.3764   -2.3192   -5.1028 H         1 <0>         0.4353
     43 H20         1.8799   -2.0114   -4.7328 H         1 <0>         0.4358
@<TRIPOS>BOND
     1    1    2 1
     2    1   27 1
     3    1   28 1
     4    1   29 1
     5    2    3 2
     6    2    4 am
     7    4    5 1
     8    4   30 1
     9    5   11 1
    10    5    6 1
    11    5   31 1
    12    6    7 1
    13    6    8 1
    14    6   23 1
    15    8    9 2
    16    8   32 1
    17    9   10 1
    18    9   20 1
    19   10   11 1
    20   11   12 1
    21   11   13 1
    22   13   14 1
    23   13   15 1
    24   13   19 1
    25   15   16 1
    26   15   18 1
    27   15   33 1
    28   16   17 1
    29   16   34 1
    30   16   35 1
    31   17   36 1
    32   18   37 1
    33   19   38 1
    34   20   21 2
    35   20   22 1
    36   23   24 1
    37   23   39 1
    38   24   25 2
    39   24   26 1
    40   25   40 1
    41   25   43 1
    42   26   41 1
    43   26   42 1
@<TRIPOS>MOLECULE
CHEMBL193303__2
   43    43     0     0     0
SMALL
USER_CHARGES

@<TRIPOS>ATOM
      1 C1         -0.0184    1.5028    0.0103 C.3       1 <0>        -0.1811
      2 C2          0.0021   -0.0041    0.0020 C.2       1 <0>         0.5114
      3 O1          1.0605   -0.5961   -0.0113 O.2       1 <0>        -0.5569
      4 N1         -1.1558   -0.6938    0.0094 N.am      1 <0>        -0.7006
      5 C3         -1.1360   -2.1586    0.0013 C.3       1 <0>         0.1121
      6 C4         -1.0197   -2.6817    1.4369 C.3       1 <0>         0.1709
      7 H1         -0.7834   -3.7456    1.4179 H         1 <0>         0.1005
      8 C5         -2.3252   -2.4704    2.1545 C.2       1 <0>        -0.3435
      9 C6         -3.4587   -2.2350    1.5075 C.2       1 <0>         0.1066
     10 O2         -3.5354   -2.1587    0.1564 O.3       1 <0>        -0.2633
     11 C7         -2.4440   -2.6906   -0.5997 C.3       1 <0>         0.0453
     12 H2         -2.4565   -3.7792   -0.5468 H         1 <0>         0.0981
     13 C8         -2.5608   -2.2432   -2.0582 C.3       1 <0>         0.0928
     14 H3         -1.7670   -2.7058   -2.6447 H         1 <0>         0.1249
     15 C9         -3.9207   -2.6691   -2.6149 C.3       1 <0>         0.0758
     16 C10        -4.0883   -2.1147   -4.0311 C.3       1 <0>         0.0503
     17 O3         -5.3054   -2.6077   -4.5947 O.3       1 <0>        -0.5625
     18 O4         -4.9596   -2.1580   -1.7773 O.3       1 <0>        -0.5104
     19 O5         -2.4402   -0.8212   -2.1313 O.3       1 <0>        -0.5472
     20 C11        -4.6892   -2.0485    2.2921 C.2       1 <0>         0.5233
     21 O6         -4.6515   -2.1121    3.5135 O.co2     1 <0>        -0.6634
     22 O7         -5.7502   -1.8298    1.7234 O.co2     1 <0>        -0.6394
     23 N2          0.0448   -1.9574    2.1359 N.pl3     1 <0>        -0.6671
     24 C12         0.6847   -2.5379    3.1963 C.cat     1 <0>         0.7415
     25 N3          1.6525   -1.8794    3.8318 N.pl3     1 <0>        -0.8003
     26 N4          0.3402   -3.7617    3.5933 N.pl3     1 <0>        -0.7949
     27 H4          1.0042    1.8801    0.0026 H         1 <0>         0.0963
     28 H5         -0.5455    1.8639   -0.8728 H         1 <0>         0.0986
     29 H6         -0.5286    1.8543    0.9071 H         1 <0>         0.0923
     30 H7         -2.0023   -0.2203    0.0200 H         1 <0>         0.4129
     31 H8         -0.2901   -2.5114   -0.5888 H         1 <0>         0.1151
     32 H9         -2.3396   -2.5116    3.2336 H         1 <0>         0.1408
     33 H10        -3.9778   -3.7573   -2.6417 H         1 <0>         0.1109
     34 H11        -4.1203   -1.0258   -3.9935 H         1 <0>         0.0545
     35 H12        -3.2475   -2.4325   -4.6476 H         1 <0>         0.0499
     36 H13        -5.4770   -2.2961   -5.4939 H         1 <0>         0.3798
     37 H14        -4.9694   -1.1936   -1.7068 H         1 <0>         0.3691
     38 H15        -3.1157   -0.3430   -1.6312 H         1 <0>         0.3789
     39 H16         0.2957   -1.0661    1.8467 H         1 <0>         0.4285
     40 H17         1.9035   -0.9882    3.5427 H         1 <0>         0.4374
     41 H18        -0.3646   -4.2413    3.1305 H         1 <0>         0.4404
     42 H19         0.7940   -4.1734    4.3453 H         1 <0>         0.4356
     43 H20         2.1063   -2.2911    4.5838 H         1 <0>         0.4364
@<TRIPOS>BOND
     1    1    2 1
     2    1   27 1
     3    1   28 1
     4    1   29 1
     5    2    3 2
     6    2    4 am
     7    4    5 1
     8    4   30 1
     9    5   11 1
    10    5    6 1
    11    5   31 1
    12    6    7 1
    13    6    8 1
    14    6   23 1
    15    8    9 2
    16    8   32 1
    17    9   10 1
    18    9   20 1
    19   10   11 1
    20   11   12 1
    21   11   13 1
    22   13   14 1
    23   13   15 1
    24   13   19 1
    25   15   16 1
    26   15   18 1
    27   15   33 1
    28   16   17 1
    29   16   34 1
    30   16   35 1
    31   17   36 1
    32   18   37 1
    33   19   38 1
    34   20   21 2
    35   20   22 1
    36   23   24 1
    37   23   39 1
    38   24   25 2
    39   24   26 1
    40   25   40 1
    41   25   43 1
    42   26   41 1
    43   26   42 1
@<TRIPOS>MOLECULE
CHEMBL193303__3
   43    43     0     0     0
SMALL
USER_CHARGES

@<TRIPOS>ATOM
      1 C1         -0.0184    1.5028    0.0103 C.3       1 <0>        -0.1813
      2 C2          0.0021   -0.0041    0.0020 C.2       1 <0>         0.5117
      3 O1          1.0605   -0.5961   -0.0113 O.2       1 <0>        -0.5569
      4 N1         -1.1558   -0.6938    0.0094 N.am      1 <0>        -0.7016
      5 C3         -1.1360   -2.1586    0.0013 C.3       1 <0>         0.1127
      6 C4         -1.0197   -2.6817    1.4369 C.3       1 <0>         0.1702
      7 H1         -0.7834   -3.7456    1.4179 H         1 <0>         0.1021
      8 C5         -2.3252   -2.4704    2.1545 C.2       1 <0>        -0.3370
      9 C6         -3.4587   -2.2350    1.5075 C.2       1 <0>         0.1065
     10 O2         -3.5354   -2.1587    0.1564 O.3       1 <0>        -0.2824
     11 C7         -2.4440   -2.6906   -0.5997 C.3       1 <0>         0.0459
     12 H2         -2.4565   -3.7792   -0.5468 H         1 <0>         0.1045
     13 C8         -2.5608   -2.2432   -2.0582 C.3       1 <0>         0.0983
     14 H3         -1.7670   -2.7058   -2.6447 H         1 <0>         0.1185
     15 C9         -3.9207   -2.6691   -2.6149 C.3       1 <0>         0.0782
     16 C10        -4.0375   -2.2217   -4.0734 C.3       1 <0>         0.0488
     17 O3         -5.3493   -2.5153   -4.5582 O.3       1 <0>        -0.5612
     18 O4         -4.0413   -4.0911   -2.5418 O.3       1 <0>        -0.5373
     19 O5         -2.4402   -0.8212   -2.1313 O.3       1 <0>        -0.5454
     20 C11        -4.6892   -2.0485    2.2921 C.2       1 <0>         0.5243
     21 O6         -4.6515   -2.1121    3.5135 O.co2     1 <0>        -0.6593
     22 O7         -5.7502   -1.8298    1.7234 O.co2     1 <0>        -0.6450
     23 N2          0.0448   -1.9574    2.1359 N.pl3     1 <0>        -0.6675
     24 C12         0.6847   -2.5379    3.1963 C.cat     1 <0>         0.7417
     25 N3          1.6525   -1.8794    3.8318 N.pl3     1 <0>        -0.8000
     26 N4          0.3402   -3.7617    3.5933 N.pl3     1 <0>        -0.7949
     27 H4          1.0042    1.8801    0.0026 H         1 <0>         0.0965
     28 H5         -0.5455    1.8639   -0.8728 H         1 <0>         0.0990
     29 H6         -0.5286    1.8543    0.9071 H         1 <0>         0.0924
     30 H7         -2.0023   -0.2203    0.0200 H         1 <0>         0.4135
     31 H8         -0.2901   -2.5114   -0.5888 H         1 <0>         0.1160
     32 H9         -2.3396   -2.5116    3.2336 H         1 <0>         0.1427
     33 H10        -4.7145   -2.2065   -2.0284 H         1 <0>         0.1251
     34 H11        -3.8573   -1.1488   -4.1399 H         1 <0>         0.0631
     35 H12        -3.3003   -2.7520   -4.6762 H         1 <0>         0.0453
     36 H13        -5.4951   -2.2580   -5.4788 H         1 <0>         0.3802
     37 H14        -3.3658   -4.5693   -3.0419 H         1 <0>         0.3680
     38 H15        -3.1157   -0.3430   -1.6312 H         1 <0>         0.3851
     39 H16         0.2957   -1.0661    1.8467 H         1 <0>         0.4288
     40 H17         1.9035   -0.9882    3.5427 H         1 <0>         0.4376
     41 H18        -0.3646   -4.2413    3.1305 H         1 <0>         0.4404
     42 H19         0.7940   -4.1734    4.3453 H         1 <0>         0.4358
     43 H20         2.1063   -2.2911    4.5838 H         1 <0>         0.4366
@<TRIPOS>BOND
     1    1    2 1
     2    1   27 1
     3    1   28 1
     4    1   29 1
     5    2    3 2
     6    2    4 am
     7    4    5 1
     8    4   30 1
     9    5   11 1
    10    5    6 1
    11    5   31 1
    12    6    7 1
    13    6    8 1
    14    6   23 1
    15    8    9 2
    16    8   32 1
    17    9   10 1
    18    9   20 1
    19   10   11 1
    20   11   12 1
    21   11   13 1
    22   13   14 1
    23   13   15 1
    24   13   19 1
    25   15   16 1
    26   15   18 1
    27   15   33 1
    28   16   17 1
    29   16   34 1
    30   16   35 1
    31   17   36 1
    32   18   37 1
    33   19   38 1
    34   20   21 2
    35   20   22 1
    36   23   24 1
    37   23   39 1
    38   24   25 2
    39   24   26 1
    40   25   40 1
    41   25   43 1
    42   26   41 1
    43   26   42 1
@<TRIPOS>MOLECULE
CHEMBL22349
   49    50     0     0     0
SMALL
USER_CHARGES

@<TRIPOS>ATOM
      1 C1         -0.0284    1.5228    0.0093 C.3       1 <0>        -0.1591
      2 C2          0.0030   -0.0068    0.0030 C.3       1 <0>        -0.1133
      3 C3          0.6062   -0.4991   -1.3141 C.3       1 <0>        -0.0972
      4 C4         -0.3700   -0.4400   -2.5029 C.3       1 <0>         0.0157
      5 N1         -0.7498   -1.8211   -2.1321 N.4       1 <0>        -0.4012
      6 C5          0.5630   -2.0287   -1.4819 C.3       1 <0>         0.0084
      7 C6         -0.9562   -2.6913   -3.2974 C.3       1 <0>         0.0744
      8 H1         -0.0344   -2.7443   -3.8767 H         1 <0>         0.1343
      9 C7         -2.0505   -2.1243   -4.1543 C.2       1 <0>        -0.2444
     10 C8         -2.9995   -2.8530   -4.7076 C.2       1 <0>        -0.0655
     11 C9         -3.1118   -4.3407   -4.5428 C.3       1 <0>        -0.0846
     12 C10        -1.7881   -4.9157   -4.0348 C.3       1 <0>         0.0924
     13 H2         -1.0358   -4.8529   -4.8211 H         1 <0>         0.0432
     14 C11        -1.3374   -4.0946   -2.8214 C.3       1 <0>         0.1371
     15 H3         -2.1516   -4.0279   -2.0998 H         1 <0>         0.1156
     16 N2         -0.1759   -4.7362   -2.2006 N.am      1 <0>        -0.7505
     17 C12        -0.3527   -5.7116   -1.2875 C.2       1 <0>         0.5023
     18 O1         -1.4734   -6.0583   -0.9799 O.2       1 <0>        -0.4951
     19 C13         0.8422   -6.3716   -0.6489 C.3       1 <0>        -0.1769
     20 N3         -1.9773   -6.3191   -3.6440 N.3       1 <0>        -0.8272
     21 C14        -4.0036   -2.1707   -5.5312 C.2       1 <0>         0.5027
     22 O2         -3.9450   -0.9585   -5.6883 O.co2     1 <0>        -0.6766
     23 O3         -4.8998   -2.8137   -6.0611 O.co2     1 <0>        -0.6642
     24 C15         1.9766    0.1142   -1.6085 C.3       1 <0>        -0.1119
     25 C16         2.9807   -0.3498   -0.5515 C.3       1 <0>        -0.1569
     26 H4          0.9916    1.9072    0.0015 H         1 <0>         0.0663
     27 H5         -0.5576    1.8790   -0.8745 H         1 <0>         0.0615
     28 H6         -0.5415    1.8720    0.9053 H         1 <0>         0.0674
     29 H7          0.6105   -0.3612    0.8357 H         1 <0>         0.0881
     30 H8         -1.0118   -0.3915    0.1041 H         1 <0>         0.0674
     31 H9         -1.1734    0.2855   -2.3758 H         1 <0>         0.1411
     32 H10         0.1227   -0.3654   -3.4724 H         1 <0>         0.1512
     33 H11         1.3285   -2.4187   -2.1527 H         1 <0>         0.1442
     34 H12         0.5050   -2.5724   -0.5390 H         1 <0>         0.1347
     35 H13        -2.0607   -1.0584   -4.3276 H         1 <0>         0.1437
     36 H14        -3.9022   -4.5662   -3.8269 H         1 <0>         0.0989
     37 H15        -3.3574   -4.7931   -5.5036 H         1 <0>         0.0961
     38 H16         0.7205   -4.4589   -2.4467 H         1 <0>         0.3964
     39 H17         1.4330   -5.6220   -0.1224 H         1 <0>         0.0868
     40 H18         0.5041   -7.1297    0.0575 H         1 <0>         0.0981
     41 H19         1.4536   -6.8403   -1.4200 H         1 <0>         0.0901
     42 H20        -2.2901   -6.8734   -4.4269 H         1 <0>         0.3506
     43 H21        -1.1325   -6.7005   -3.2453 H         1 <0>         0.3360
     44 H22         2.3134   -0.2053   -2.5947 H         1 <0>         0.0762
     45 H23         1.9007    1.2013   -1.5851 H         1 <0>         0.0885
     46 H24         2.6916    0.0451    0.4225 H         1 <0>         0.0625
     47 H25         2.9909   -1.4391   -0.5134 H         1 <0>         0.0550
     48 H26         3.9751    0.0139   -0.8104 H         1 <0>         0.0664
     49 H27        -1.5209   -1.8563   -1.4823 H         1 <0>         0.4315
@<TRIPOS>BOND
     1    1    2 1
     2    1   26 1
     3    1   27 1
     4    1   28 1
     5    2    3 1
     6    2   29 1
     7    2   30 1
     8    3    6 1
     9    3    4 1
    10    3   24 1
    11    4    5 1
    12    4   31 1
    13    4   32 1
    14    5    6 1
    15    5    7 1
    16    5   49 1
    17    6   33 1
    18    6   34 1
    19    7    8 1
    20    7   14 1
    21    7    9 1
    22    9   10 2
    23    9   35 1
    24   10   11 1
    25   10   21 1
    26   11   12 1
    27   11   36 1
    28   11   37 1
    29   12   13 1
    30   12   14 1
    31   12   20 1
    32   14   15 1
    33   14   16 1
    34   16   17 am
    35   16   38 1
    36   17   18 2
    37   17   19 1
    38   19   39 1
    39   19   40 1
    40   19   41 1
    41   20   42 1
    42   20   43 1
    43   21   22 2
    44   21   23 1
    45   24   25 1
    46   24   44 1
    47   24   45 1
    48   25   46 1
    49   25   47 1
    50   25   48 1
@<TRIPOS>MOLECULE
CHEMBL22349__1
   49    50     0     0     0
SMALL
USER_CHARGES

@<TRIPOS>ATOM
      1 C1         -0.0148    1.5230    0.0195 C.3       1 <0>        -0.1545
      2 C2          0.0025   -0.0068    0.0007 C.3       1 <0>        -0.0944
      3 C3         -1.4269   -0.5347    0.1386 C.3       1 <0>        -0.0805
      4 C4         -1.9699   -0.4842    1.5781 C.3       1 <0>         0.0153
      5 N1         -1.4243   -1.8515    1.7265 N.3       1 <0>        -0.4603
      6 C5         -1.5122   -2.0664    0.2652 C.3       1 <0>         0.0056
      7 C6         -2.3675   -2.7197    2.4439 C.3       1 <0>         0.0869
      8 H1         -3.3033   -2.7741    1.8877 H         1 <0>         0.0671
      9 C7         -2.6312   -2.1488    3.8069 C.2       1 <0>        -0.1375
     10 C8         -2.6910   -2.8744    4.9058 C.2       1 <0>        -0.1542
     11 C9         -2.4932   -4.3620    4.9349 C.3       1 <0>        -0.0821
     12 C10        -2.6446   -4.9410    3.5267 C.3       1 <0>         0.0146
     13 H2         -3.6873   -4.8790    3.2155 H         1 <0>         0.1427
     14 C11        -1.7701   -4.1226    2.5701 C.3       1 <0>         0.1349
     15 H3         -0.7566   -4.0549    2.9656 H         1 <0>         0.1288
     16 N2         -1.7471   -4.7679    1.2551 N.am      1 <0>        -0.7333
     17 C12        -0.8539   -5.7441    0.9989 C.2       1 <0>         0.5062
     18 O1         -0.0691   -6.0884    1.8571 O.2       1 <0>        -0.5498
     19 C13        -0.8302   -6.4078   -0.3538 C.3       1 <0>        -0.1782
     20 N3         -2.2105   -6.3444    3.5209 N.4       1 <0>        -0.6278
     21 C14        -2.9662   -2.1885    6.1731 C.2       1 <0>         0.5116
     22 O2         -3.1328   -0.9762    6.1891 O.co2     1 <0>        -0.6729
     23 O3         -3.0293   -2.8286    7.2142 O.co2     1 <0>        -0.6856
     24 C15        -2.3820    0.0512   -0.9032 C.3       1 <0>        -0.1139
     25 C16        -1.9570   -0.4072   -2.2997 C.3       1 <0>        -0.1494
     26 H4          1.0087    1.8980    0.0146 H         1 <0>         0.0549
     27 H5         -0.5408    1.8912   -0.8613 H         1 <0>         0.0551
     28 H6         -0.5244    1.8696    0.9185 H         1 <0>         0.0574
     29 H7          0.4288   -0.3538   -0.9405 H         1 <0>         0.0628
     30 H8          0.6068   -0.3735    0.8304 H         1 <0>         0.0724
     31 H9         -1.4766    0.2562    2.2078 H         1 <0>         0.0976
     32 H10        -3.0573   -0.4366    1.6359 H         1 <0>         0.0765
     33 H11        -2.4658   -2.4816   -0.0611 H         1 <0>         0.0648
     34 H12        -0.6532   -2.5903   -0.1541 H         1 <0>         0.0871
     35 H13        -2.7808   -1.0826    3.8920 H         1 <0>         0.1381
     36 H14        -1.4957   -4.5866    5.3126 H         1 <0>         0.0952
     37 H15        -3.2364   -4.8126    5.5927 H         1 <0>         0.1082
     38 H16        -2.3748   -4.4925    0.5687 H         1 <0>         0.4110
     39 H17        -1.6017   -5.9697   -0.9870 H         1 <0>         0.0829
     40 H18         0.1462   -6.2586   -0.8147 H         1 <0>         0.1069
     41 H19        -1.0181   -7.4753   -0.2381 H         1 <0>         0.1020
     42 H20        -2.7787   -6.8749    4.1641 H         1 <0>         0.4341
     43 H21        -2.3113   -6.7238    2.5914 H         1 <0>         0.4204
     44 H22        -3.3962   -0.2932   -0.7008 H         1 <0>         0.0600
     45 H23        -2.3511    1.1396   -0.8530 H         1 <0>         0.0726
     46 H24        -0.9792    0.0116   -2.5376 H         1 <0>         0.0570
     47 H25        -1.9018   -1.4955   -2.3237 H         1 <0>         0.0504
     48 H26        -2.6872   -0.0642   -3.0326 H         1 <0>         0.0540
     49 H27        -1.2433   -6.3984    3.8031 H         1 <0>         0.4392
@<TRIPOS>BOND
     1    1    2 1
     2    1   26 1
     3    1   27 1
     4    1   28 1
     5    2    3 1
     6    2   29 1
     7    2   30 1
     8    3    6 1
     9    3    4 1
    10    3   24 1
    11    4    5 1
    12    4   31 1
    13    4   32 1
    14    5    6 1
    15    5    7 1
    16    6   33 1
    17    6   34 1
    18    7    8 1
    19    7   14 1
    20    7    9 1
    21    9   10 2
    22    9   35 1
    23   10   11 1
    24   10   21 1
    25   11   12 1
    26   11   36 1
    27   11   37 1
    28   12   13 1
    29   12   14 1
    30   12   20 1
    31   14   15 1
    32   14   16 1
    33   16   17 am
    34   16   38 1
    35   17   18 2
    36   17   19 1
    37   19   39 1
    38   19   40 1
    39   19   41 1
    40   20   42 1
    41   20   43 1
    42   20   49 1
    43   21   22 2
    44   21   23 1
    45   24   25 1
    46   24   44 1
    47   24   45 1
    48   25   46 1
    49   25   47 1
    50   25   48 1
@<TRIPOS>MOLECULE
CHEMBL22350
   49    50     0     0     0
SMALL
USER_CHARGES

@<TRIPOS>ATOM
      1 C1         -0.0184    1.5028    0.0103 C.3       1 <0>        -0.1779
      2 C2          0.0021   -0.0041    0.0020 C.2       1 <0>         0.4994
      3 O1          1.0605   -0.5961   -0.0113 O.2       1 <0>        -0.4921
      4 N1         -1.1558   -0.6938    0.0094 N.am      1 <0>        -0.7523
      5 C3         -1.1360   -2.1586    0.0013 C.3       1 <0>         0.1345
      6 H1         -0.2845   -2.5164    0.5802 H         1 <0>         0.1158
      7 C4         -1.0266   -2.6644   -1.4423 C.3       1 <0>         0.0935
      8 H2         -1.9464   -2.4364   -1.9809 H         1 <0>         0.0443
      9 C5         -0.8109   -4.1789   -1.4116 C.3       1 <0>        -0.0849
     10 C6         -1.8286   -4.8276   -0.5192 C.2       1 <0>        -0.0631
     11 C7         -2.5429   -4.1726    0.3744 C.2       1 <0>        -0.2489
     12 C8         -2.4333   -2.6936    0.6111 C.3       1 <0>         0.0732
     13 H3         -3.2835   -2.1922    0.1487 H         1 <0>         0.1352
     14 N2         -2.4396   -2.4252    2.0553 N.4       1 <0>        -0.3789
     15 C9         -2.3385   -0.9770    2.2829 C.3       1 <0>        -0.0168
     16 C10        -2.7188   -0.6386    3.7231 C.3       1 <0>        -0.1649
     17 C11        -1.5556   -0.9960    4.6554 C.3       1 <0>        -0.1339
     18 C12        -1.5096   -2.5162    4.8185 C.3       1 <0>        -0.1369
     19 C13        -2.9318   -3.0412    5.0209 C.3       1 <0>        -0.1434
     20 C14        -3.3484   -3.8727    3.8105 C.3       1 <0>        -0.1470
     21 C15        -3.6850   -2.9386    2.6416 C.3       1 <0>        -0.0230
     22 C16        -2.0409   -6.2734   -0.6492 C.2       1 <0>         0.5028
     23 O2         -2.8623   -6.8376    0.0612 O.co2     1 <0>        -0.6757
     24 O3         -1.3967   -6.9152   -1.4681 O.co2     1 <0>        -0.6637
     25 N3          0.1095   -2.0137   -2.1085 N.3       1 <0>        -0.8271
     26 H4          1.0042    1.8801    0.0026 H         1 <0>         0.0990
     27 H5         -0.5455    1.8639   -0.8728 H         1 <0>         0.0910
     28 H6         -0.5286    1.8543    0.9071 H         1 <0>         0.0876
     29 H7         -2.0023   -0.2203    0.0200 H         1 <0>         0.3989
     30 H8         -0.9085   -4.5784   -2.4210 H         1 <0>         0.0970
     31 H9          0.1892   -4.3939   -1.0351 H         1 <0>         0.0994
     32 H10        -3.2457   -4.7323    0.9738 H         1 <0>         0.1472
     33 H11        -1.3152   -0.6527    2.0942 H         1 <0>         0.1319
     34 H12        -3.0107   -0.4568    1.6005 H         1 <0>         0.1200
     35 H13        -2.9331    0.4273    3.8015 H         1 <0>         0.1052
     36 H14        -3.6024   -1.2091    4.0093 H         1 <0>         0.1055
     37 H15        -0.6186   -0.6460    4.2221 H         1 <0>         0.0755
     38 H16        -1.7091   -0.5282    5.6279 H         1 <0>         0.0859
     39 H17        -1.0790   -2.9658    3.9237 H         1 <0>         0.0499
     40 H18        -0.9000   -2.7714    5.6853 H         1 <0>         0.0861
     41 H19        -2.9656   -3.6617    5.9164 H         1 <0>         0.0848
     42 H20        -3.6160   -2.2005    5.1365 H         1 <0>         0.0842
     43 H21        -2.5298   -4.5330    3.5240 H         1 <0>         0.0929
     44 H22        -4.2251   -4.4690    4.0634 H         1 <0>         0.1119
     45 H23        -4.2873   -2.1053    3.0036 H         1 <0>         0.1328
     46 H24        -4.2433   -3.4896    1.8847 H         1 <0>         0.1374
     47 H25         0.2007   -2.3322   -3.0616 H         1 <0>         0.3505
     48 H26         0.0244   -1.0090   -2.0696 H         1 <0>         0.3362
     49 H27        -1.6518   -2.8864    2.4852 H         1 <0>         0.4209
@<TRIPOS>BOND
     1    1    2 1
     2    1   26 1
     3    1   27 1
     4    1   28 1
     5    2    3 2
     6    2    4 am
     7    4    5 1
     8    4   29 1
     9    5    6 1
    10    5   12 1
    11    5    7 1
    12    7    8 1
    13    7    9 1
    14    7   25 1
    15    9   10 1
    16    9   30 1
    17    9   31 1
    18   10   11 2
    19   10   22 1
    20   11   12 1
    21   11   32 1
    22   12   13 1
    23   12   14 1
    24   14   21 1
    25   14   15 1
    26   14   49 1
    27   15   16 1
    28   15   33 1
    29   15   34 1
    30   16   17 1
    31   16   35 1
    32   16   36 1
    33   17   18 1
    34   17   37 1
    35   17   38 1
    36   18   19 1
    37   18   39 1
    38   18   40 1
    39   19   20 1
    40   19   41 1
    41   19   42 1
    42   20   21 1
    43   20   43 1
    44   20   44 1
    45   21   45 1
    46   21   46 1
    47   22   23 2
    48   22   24 1
    49   25   47 1
    50   25   48 1
@<TRIPOS>MOLECULE
CHEMBL22350__1
   49    50     0     0     0
SMALL
USER_CHARGES

@<TRIPOS>ATOM
      1 C1         -0.0184    1.5028    0.0103 C.3       1 <0>        -0.1805
      2 C2          0.0021   -0.0041    0.0020 C.2       1 <0>         0.5043
      3 O1          0.0203   -0.6160    1.0489 O.2       1 <0>        -0.5483
      4 N1          0.0001   -0.6716   -1.1688 N.am      1 <0>        -0.7363
      5 C3          0.0199   -2.1365   -1.1769 C.3       1 <0>         0.1290
      6 H1         -0.5559   -2.5151   -0.3324 H         1 <0>         0.1297
      7 C4          1.4676   -2.6326   -1.0772 C.3       1 <0>         0.0159
      8 H2          2.0042   -2.3828   -1.9925 H         1 <0>         0.1431
      9 C5          1.4491   -4.1511   -0.8905 C.3       1 <0>        -0.0813
     10 C6          0.5618   -4.7875   -1.9203 C.2       1 <0>        -0.1566
     11 C7         -0.3372   -4.1263   -2.6219 C.2       1 <0>        -0.1334
     12 C8         -0.5857   -2.6515   -2.4841 C.3       1 <0>         0.1221
     13 H3         -0.1275   -2.1303   -3.3247 H         1 <0>         0.0601
     14 N2         -2.0321   -2.3947   -2.4852 N.3       1 <0>        -0.5179
     15 C9         -2.3136   -0.9703   -2.2693 C.3       1 <0>         0.0518
     16 C10        -3.7861   -0.6774   -2.5562 C.3       1 <0>        -0.1451
     17 C11        -4.6398   -1.1588   -1.3781 C.3       1 <0>        -0.1090
     18 C12        -4.7279   -2.6864   -1.4239 C.3       1 <0>        -0.1202
     19 C13        -4.9798   -3.1366   -2.8630 C.3       1 <0>        -0.1227
     20 C14        -3.7545   -3.8843   -3.3878 C.3       1 <0>        -0.1140
     21 C15        -2.6517   -2.8765   -3.7280 C.3       1 <0>         0.0446
     22 C16         0.7034   -6.2279   -2.1601 C.2       1 <0>         0.5119
     23 O2         -0.0025   -6.7820   -2.9921 O.co2     1 <0>        -0.6726
     24 O3          1.5276   -6.8752   -1.5283 O.co2     1 <0>        -0.6866
     25 N3          2.1287   -1.9983    0.0711 N.4       1 <0>        -0.6278
     26 H4          1.0042    1.8801    0.0026 H         1 <0>         0.1008
     27 H5         -0.5455    1.8639   -0.8728 H         1 <0>         0.0890
     28 H6         -0.5286    1.8543    0.9071 H         1 <0>         0.1047
     29 H7         -0.0145   -0.1822   -2.0061 H         1 <0>         0.4138
     30 H8          2.4618   -4.5405   -0.9957 H         1 <0>         0.1078
     31 H9          1.0746   -4.3882    0.1054 H         1 <0>         0.0947
     32 H10        -0.9322   -4.6772   -3.3352 H         1 <0>         0.1404
     33 H11        -2.0879   -0.7099   -1.2353 H         1 <0>         0.0788
     34 H12        -1.6899   -0.3736   -2.9350 H         1 <0>         0.0245
     35 H13        -3.9239    0.3954   -2.6905 H         1 <0>         0.0623
     36 H14        -4.0907   -1.1997   -3.4631 H         1 <0>         0.0909
     37 H15        -4.1780   -0.8475   -0.4411 H         1 <0>         0.0554
     38 H16        -5.6402   -0.7328   -1.4539 H         1 <0>         0.0557
     39 H17        -3.7915   -3.1156   -1.0673 H         1 <0>         0.0832
     40 H18        -5.5475   -3.0226   -0.7889 H         1 <0>         0.0503
     41 H19        -5.8470   -3.7965   -2.8904 H         1 <0>         0.0560
     42 H20        -5.1682   -2.2641   -3.4886 H         1 <0>         0.0639
     43 H21        -3.3943   -4.5735   -2.6241 H         1 <0>         0.0780
     44 H22        -4.0255   -4.4430   -4.2837 H         1 <0>         0.0645
     45 H23        -3.0829   -2.0346   -4.2696 H         1 <0>         0.0643
     46 H24        -1.8961   -3.3595   -4.3476 H         1 <0>         0.0677
     47 H25         1.6340   -2.2363    0.9176 H         1 <0>         0.4392
     48 H26         3.0808   -2.3263    0.1344 H         1 <0>         0.4340
     49 H27         2.1255   -0.9966   -0.0501 H         1 <0>         0.4199
@<TRIPOS>BOND
     1    1    2 1
     2    1   26 1
     3    1   27 1
     4    1   28 1
     5    2    3 2
     6    2    4 am
     7    4    5 1
     8    4   29 1
     9    5    6 1
    10    5   12 1
    11    5    7 1
    12    7    8 1
    13    7    9 1
    14    7   25 1
    15    9   10 1
    16    9   30 1
    17    9   31 1
    18   10   11 2
    19   10   22 1
    20   11   12 1
    21   11   32 1
    22   12   13 1
    23   12   14 1
    24   14   21 1
    25   14   15 1
    26   15   16 1
    27   15   33 1
    28   15   34 1
    29   16   17 1
    30   16   35 1
    31   16   36 1
    32   17   18 1
    33   17   37 1
    34   17   38 1
    35   18   19 1
    36   18   39 1
    37   18   40 1
    38   19   20 1
    39   19   41 1
    40   19   42 1
    41   20   21 1
    42   20   43 1
    43   20   44 1
    44   21   45 1
    45   21   46 1
    46   22   23 2
    47   22   24 1
    48   25   47 1
    49   25   48 1
    50   25   49 1
@<TRIPOS>MOLECULE
CHEMBL168147
   52    53     0     0     0
SMALL
USER_CHARGES

@<TRIPOS>ATOM
      1 C1          0.6401    3.1902    2.7467 C.3       1 <0>        -0.1519
      2 C2          0.0967    1.8217    3.1625 C.3       1 <0>        -0.1413
      3 C3          0.9888    1.2294    4.2553 C.3       1 <0>         0.1477
      4 C4          2.3756    0.8859    3.6719 C.3       1 <0>        -0.1321
      5 C5          2.2569   -0.6299    3.3630 C.3       1 <0>        -0.1262
      6 C6          1.3662   -1.1169    4.5331 C.3       1 <0>         0.1423
      7 N1          0.4029   -0.0231    4.7547 N.am      1 <0>        -0.6568
      8 C7         -0.8132   -0.1503    5.3216 C.2       1 <0>         0.5694
      9 O1         -1.7903    0.3110    4.7708 O.2       1 <0>        -0.4434
     10 C8         -0.9589   -0.8656    6.6400 C.3       1 <0>         0.0495
     11 H1         -0.0099   -1.3260    6.9149 H         1 <0>         0.0981
     12 C9         -1.3832    0.1325    7.7258 C.3       1 <0>         0.0988
     13 H2         -2.3621    0.5458    7.4829 H         1 <0>         0.1305
     14 C10        -1.4546   -0.6138    9.0623 C.3       1 <0>         0.0898
     15 H3         -0.4453   -0.8326    9.4107 H         1 <0>         0.1445
     16 C11        -2.2116   -1.9010    8.8776 C.2       1 <0>        -0.3758
     17 C12        -2.4155   -2.4371    7.6818 C.2       1 <0>         0.1421
     18 O2         -1.9697   -1.8719    6.5332 O.3       1 <0>        -0.2580
     19 C13        -3.1594   -3.7036    7.5980 C.2       1 <0>         0.5226
     20 O3         -3.5743   -4.2381    8.6174 O.co2     1 <0>        -0.6494
     21 O4         -3.3633   -4.2224    6.5088 O.co2     1 <0>        -0.6329
     22 N2         -2.1445    0.2223   10.0537 N.4       1 <0>        -0.6267
     23 N3         -0.3988    1.2138    7.8148 N.am      1 <0>        -0.7452
     24 C14        -0.4905    2.2779    6.9929 C.2       1 <0>         0.5012
     25 O5         -1.4516    2.3995    6.2632 O.2       1 <0>        -0.4923
     26 C15         0.6012    3.3167    6.9805 C.3       1 <0>        -0.1767
     27 C16         0.6324   -2.4021    4.1446 C.3       1 <0>        -0.1403
     28 C17         0.8218   -3.4496    5.2435 C.3       1 <0>        -0.1488
     29 H4          0.2668    3.9525    3.4307 H         1 <0>         0.0522
     30 H5          1.7294    3.1741    2.7802 H         1 <0>         0.0556
     31 H6          0.3110    3.4191    1.7331 H         1 <0>         0.0575
     32 H7         -0.9183    1.9343    3.5434 H         1 <0>         0.0852
     33 H8          0.0892    1.1563    2.2993 H         1 <0>         0.0638
     34 H9          1.0944    1.9415    5.0738 H         1 <0>         0.0657
     35 H10         2.5610    1.4522    2.7592 H         1 <0>         0.0879
     36 H11         3.1594    1.0695    4.4068 H         1 <0>         0.0750
     37 H12         1.7669   -0.7960    2.4036 H         1 <0>         0.0804
     38 H13         3.2343   -1.1117    3.3893 H         1 <0>         0.0864
     39 H14         1.9688   -1.2786    5.4268 H         1 <0>         0.0728
     40 H15        -2.6020   -2.4059    9.7488 H         1 <0>         0.1656
     41 H16        -3.0789    0.4247    9.7312 H         1 <0>         0.4372
     42 H17        -2.1915   -0.2692   10.9337 H         1 <0>         0.4403
     43 H18         0.3190    1.1638    8.4654 H         1 <0>         0.4051
     44 H19         1.4077    3.0042    7.6437 H         1 <0>         0.0798
     45 H20         0.9865    3.4268    5.9668 H         1 <0>         0.1044
     46 H21         0.1990    4.2705    7.3219 H         1 <0>         0.1017
     47 H22        -0.4300   -2.1912    4.0228 H         1 <0>         0.0730
     48 H23         1.0372   -2.7822    3.2066 H         1 <0>         0.0778
     49 H24         0.3574   -4.3866    4.9363 H         1 <0>         0.0663
     50 H25         1.8866   -3.6102    5.4128 H         1 <0>         0.0545
     51 H26         0.3565   -3.0983    6.1645 H         1 <0>         0.0475
     52 H27        -1.6370    1.0855   10.1773 H         1 <0>         0.4261
@<TRIPOS>BOND
     1    1    2 1
     2    1   29 1
     3    1   30 1
     4    1   31 1
     5    2    3 1
     6    2   32 1
     7    2   33 1
     8    3    7 1
     9    3    4 1
    10    3   34 1
    11    4    5 1
    12    4   35 1
    13    4   36 1
    14    5    6 1
    15    5   37 1
    16    5   38 1
    17    6    7 1
    18    6   27 1
    19    6   39 1
    20    7    8 am
    21    8    9 2
    22    8   10 1
    23   10   11 1
    24   10   18 1
    25   10   12 1
    26   12   13 1
    27   12   14 1
    28   12   23 1
    29   14   15 1
    30   14   16 1
    31   14   22 1
    32   16   17 2
    33   16   40 1
    34   17   18 1
    35   17   19 1
    36   19   20 2
    37   19   21 1
    38   22   41 1
    39   22   42 1
    40   22   52 1
    41   23   24 am
    42   23   43 1
    43   24   25 2
    44   24   26 1
    45   26   44 1
    46   26   45 1
    47   26   46 1
    48   27   28 1
    49   27   47 1
    50   27   48 1
    51   28   49 1
    52   28   50 1
    53   28   51 1
@<TRIPOS>MOLECULE
CHEMBL168147__1
   51    52     0     0     0
SMALL
USER_CHARGES

@<TRIPOS>ATOM
      1 C1         -1.4902    2.8693   -2.5041 C.3       1 <0>        -0.1431
      2 C2         -2.1452    1.4977   -2.3292 C.3       1 <0>        -0.1311
      3 C3         -1.0976    0.4021   -2.5369 C.3       1 <0>         0.1406
      4 C4         -1.7771   -0.9835   -2.5214 C.3       1 <0>        -0.1292
      5 C5         -1.5554   -1.4629   -1.0626 C.3       1 <0>        -0.1272
      6 C6         -0.1518   -0.8843   -0.7549 C.3       1 <0>         0.1306
      7 N1         -0.1257    0.4239   -1.4340 N.am      1 <0>        -0.6076
      8 C7          0.6594    1.4671   -1.0995 C.2       1 <0>         0.5372
      9 O1          0.6646    2.4668   -1.7861 O.2       1 <0>        -0.4822
     10 C8          1.5307    1.3913    0.1277 C.3       1 <0>         0.0380
     11 H1          1.7344    0.3482    0.3696 H         1 <0>         0.1018
     12 C9          2.8511    2.1301   -0.1291 C.3       1 <0>         0.1238
     13 H2          2.6523    3.1867   -0.3084 H         1 <0>         0.1290
     14 C10         3.7374    1.9742    1.1112 C.3       1 <0>         0.1352
     15 H3          4.1153    0.9531    1.1618 H         1 <0>         0.0360
     16 C11         2.9294    2.2718    2.3450 C.2       1 <0>        -0.2572
     17 C12         1.6032    2.2754    2.3390 C.2       1 <0>         0.0457
     18 O2          0.8689    2.0209    1.2283 O.3       1 <0>        -0.2720
     19 C13         0.8962    2.5686    3.5956 C.2       1 <0>         0.5362
     20 O3          1.5316    2.8020    4.6149 O.co2     1 <0>        -0.6671
     21 O4         -0.3270    2.5792    3.6212 O.co2     1 <0>        -0.6647
     22 N2          4.8662    2.9106    1.0273 N.3       1 <0>        -0.8306
     23 N3          3.5236    1.5494   -1.2939 N.am      1 <0>        -0.7286
     24 C14         3.6428    2.2654   -2.4296 C.2       1 <0>         0.5072
     25 O5          3.1933    3.3904   -2.4871 O.2       1 <0>        -0.5108
     26 C15         4.3345    1.6681   -3.6278 C.3       1 <0>        -0.1693
     27 C16         0.0314   -0.7050    0.7534 C.3       1 <0>        -0.1822
     28 C17         1.2180   -1.5471    1.2267 C.3       1 <0>        -0.1507
     29 H4         -1.0189    3.1689   -1.5681 H         1 <0>         0.0746
     30 H5         -0.7362    2.8144   -3.2893 H         1 <0>         0.0614
     31 H6         -2.2489    3.6018   -2.7796 H         1 <0>         0.0323
     32 H7         -2.5594    1.4184   -1.3241 H         1 <0>         0.0652
     33 H8         -2.9438    1.3804   -3.0616 H         1 <0>         0.0641
     34 H9         -0.5845    0.5553   -3.4863 H         1 <0>         0.0717
     35 H10        -2.8411   -0.8936   -2.7404 H         1 <0>         0.0827
     36 H11        -1.2927   -1.6584   -3.2270 H         1 <0>         0.0735
     37 H12        -2.3067   -1.0417   -0.3945 H         1 <0>         0.0813
     38 H13        -1.5504   -2.5514   -1.0055 H         1 <0>         0.0821
     39 H14         0.6237   -1.5361   -1.1573 H         1 <0>         0.0750
     40 H15         3.4472    2.4896    3.2674 H         1 <0>         0.1381
     41 H16         5.4660    2.8271    1.8343 H         1 <0>         0.3449
     42 H17         5.3870    2.7736    0.1740 H         1 <0>         0.3352
     43 H18         3.8831    0.6497   -1.2479 H         1 <0>         0.3929
     44 H19         3.6037    1.1486   -4.2477 H         1 <0>         0.0884
     45 H20         4.8050    2.4615   -4.2086 H         1 <0>         0.0909
     46 H21         5.0950    0.9623   -3.2939 H         1 <0>         0.0750
     47 H22         0.2204    0.3455    0.9742 H         1 <0>         0.1167
     48 H23        -0.8724   -1.0280    1.2701 H         1 <0>         0.0766
     49 H24         1.2710   -1.5207    2.3151 H         1 <0>         0.0644
     50 H25         1.0883   -2.5769    0.8941 H         1 <0>         0.0557
     51 H26         2.1399   -1.1434    0.8081 H         1 <0>         0.0496
@<TRIPOS>BOND
     1    1    2 1
     2    1   29 1
     3    1   30 1
     4    1   31 1
     5    2    3 1
     6    2   32 1
     7    2   33 1
     8    3    7 1
     9    3    4 1
    10    3   34 1
    11    4    5 1
    12    4   35 1
    13    4   36 1
    14    5    6 1
    15    5   37 1
    16    5   38 1
    17    6    7 1
    18    6   27 1
    19    6   39 1
    20    7    8 am
    21    8    9 2
    22    8   10 1
    23   10   11 1
    24   10   18 1
    25   10   12 1
    26   12   13 1
    27   12   14 1
    28   12   23 1
    29   14   15 1
    30   14   16 1
    31   14   22 1
    32   16   17 2
    33   16   40 1
    34   17   18 1
    35   17   19 1
    36   19   20 2
    37   19   21 1
    38   22   41 1
    39   22   42 1
    40   23   24 am
    41   23   43 1
    42   24   25 2
    43   24   26 1
    44   26   44 1
    45   26   45 1
    46   26   46 1
    47   27   28 1
    48   27   47 1
    49   27   48 1
    50   28   49 1
    51   28   50 1
    52   28   51 1
@<TRIPOS>MOLECULE
CHEMBL168147__2
   52    53     0     0     0
SMALL
USER_CHARGES

@<TRIPOS>ATOM
      1 C1          2.6226    0.4153   -2.6740 C.3       1 <0>        -0.1643
      2 C2          1.1595    0.3636   -2.2295 C.3       1 <0>        -0.1502
      3 C3          0.3246   -0.3365   -3.3037 C.3       1 <0>         0.1390
      4 C4         -1.1669   -0.3119   -2.9080 C.3       1 <0>        -0.1296
      5 C5         -1.8822   -0.0727   -4.2638 C.3       1 <0>        -0.1283
      6 C6         -0.8831    0.8695   -4.9806 C.3       1 <0>         0.1249
      7 N1          0.4493    0.3814   -4.5807 N.am      1 <0>        -0.6158
      8 C7          1.5923    0.5635   -5.2711 C.2       1 <0>         0.5484
      9 O1          2.5188   -0.2052   -5.1236 O.2       1 <0>        -0.4733
     10 C8          1.7193    1.7221   -6.2263 C.3       1 <0>        -0.0278
     11 H1          0.8392    1.7674   -6.8678 H         1 <0>         0.1806
     12 C9          1.8514    3.0314   -5.4365 C.3       1 <0>         0.0942
     13 H2          2.7655    3.0120   -4.8430 H         1 <0>         0.1338
     14 C10         1.9089    4.1912   -6.4362 C.3       1 <0>         0.0807
     15 H3          0.9208    4.3472   -6.8691 H         1 <0>         0.1407
     16 C11         2.8894    3.8626   -7.5292 C.2       1 <0>        -0.3758
     17 C12         3.3055    2.6243   -7.7581 C.2       1 <0>         0.1403
     18 O2          2.8924    1.5594   -7.0282 O.3       1 <0>        -0.2526
     19 C13         4.2591    2.3957   -8.8549 C.2       1 <0>         0.5221
     20 O3          4.6502    3.3370   -9.5318 O.co2     1 <0>        -0.6498
     21 O4          4.6612    1.2643   -9.0902 O.co2     1 <0>        -0.6332
     22 N2          2.3387    5.4136   -5.7439 N.4       1 <0>        -0.6241
     23 N3          0.6932    3.1953   -4.5545 N.am      1 <0>        -0.7457
     24 C14         0.8750    3.4139   -3.2371 C.2       1 <0>         0.5217
     25 O5          1.9496    3.8010   -2.8292 O.2       1 <0>        -0.5267
     26 C15        -0.2569    3.1773   -2.2707 C.3       1 <0>        -0.1895
     27 C16        -1.0530    0.7708   -6.4979 C.3       1 <0>        -0.1500
     28 C17        -0.5947    2.0776   -7.1485 C.3       1 <0>        -0.1933
     29 H4          3.0223   -0.5975   -2.7268 H         1 <0>         0.0605
     30 H5          2.6876    0.8832   -3.6563 H         1 <0>         0.0663
     31 H6          3.2003    0.9968   -1.9556 H         1 <0>         0.0467
     32 H7          1.0836   -0.1888   -1.2930 H         1 <0>         0.0748
     33 H8          0.7879    1.3779   -2.0842 H         1 <0>         0.0729
     34 H9          0.6620   -1.3661   -3.4227 H         1 <0>         0.0821
     35 H10        -1.4672   -1.2669   -2.4767 H         1 <0>         0.0885
     36 H11        -1.3688    0.5055   -2.2158 H         1 <0>         0.0787
     37 H12        -2.0012   -1.0067   -4.8130 H         1 <0>         0.0854
     38 H13        -2.8446    0.4175   -4.1167 H         1 <0>         0.0897
     39 H14        -1.0260    1.8977   -4.6481 H         1 <0>         0.0723
     40 H15         3.2669    4.6625   -8.1488 H         1 <0>         0.1645
     41 H16         3.2534    5.2692   -5.3433 H         1 <0>         0.4376
     42 H17         2.3766    6.1773   -6.4022 H         1 <0>         0.4379
     43 H18        -0.2045    3.1464   -4.9187 H         1 <0>         0.4115
     44 H19        -1.1040    2.7441   -2.8025 H         1 <0>         0.0836
     45 H20         0.0702    2.4921   -1.4887 H         1 <0>         0.1162
     46 H21        -0.5556    4.1247   -1.8221 H         1 <0>         0.1031
     47 H22        -0.4513   -0.0548   -6.8780 H         1 <0>         0.0830
     48 H23        -2.1022    0.5952   -6.7354 H         1 <0>         0.0954
     49 H24        -1.4620    2.6191   -7.5263 H         1 <0>         0.0813
     50 H25        -0.0778    2.6897   -6.4094 H         1 <0>         0.0576
     51 H26         0.0822    1.8549   -7.9733 H         1 <0>         0.0887
     52 H27         1.6813    5.6337   -5.0108 H         1 <0>         0.4253
@<TRIPOS>BOND
     1    1    2 1
     2    1   29 1
     3    1   30 1
     4    1   31 1
     5    2    3 1
     6    2   32 1
     7    2   33 1
     8    3    7 1
     9    3    4 1
    10    3   34 1
    11    4    5 1
    12    4   35 1
    13    4   36 1
    14    5    6 1
    15    5   37 1
    16    5   38 1
    17    6    7 1
    18    6   27 1
    19    6   39 1
    20    7    8 am
    21    8    9 2
    22    8   10 1
    23   10   11 1
    24   10   18 1
    25   10   12 1
    26   12   13 1
    27   12   14 1
    28   12   23 1
    29   14   15 1
    30   14   16 1
    31   14   22 1
    32   16   17 2
    33   16   40 1
    34   17   18 1
    35   17   19 1
    36   19   20 2
    37   19   21 1
    38   22   41 1
    39   22   42 1
    40   22   52 1
    41   23   24 am
    42   23   43 1
    43   24   25 2
    44   24   26 1
    45   26   44 1
    46   26   45 1
    47   26   46 1
    48   27   28 1
    49   27   47 1
    50   27   48 1
    51   28   49 1
    52   28   50 1
    53   28   51 1
@<TRIPOS>MOLECULE
CHEMBL168147__3
   51    52     0     0     0
SMALL
USER_CHARGES

@<TRIPOS>ATOM
      1 C1         -0.0694    0.3614    0.7660 C.3       1 <0>        -0.1497
      2 C2         -0.7139   -0.9551    0.3275 C.3       1 <0>        -0.1265
      3 C3          0.2605   -1.7281   -0.5635 C.3       1 <0>         0.1376
      4 C4         -0.3282   -3.1125   -0.9075 C.3       1 <0>        -0.1279
      5 C5          0.0963   -3.3129   -2.3863 C.3       1 <0>        -0.1260
      6 C6         -0.0045   -1.8687   -2.9373 C.3       1 <0>         0.1280
      7 N1          0.4563   -1.0098   -1.8312 N.am      1 <0>        -0.6103
      8 C7          0.9714    0.2289   -1.9608 C.2       1 <0>         0.5410
      9 O1          1.4567    0.7874   -0.9998 O.2       1 <0>        -0.4882
     10 C8          0.9442    0.9201   -3.2997 C.3       1 <0>         0.0210
     11 H1          0.9262    0.1765   -4.0965 H         1 <0>         0.1254
     12 C9         -0.3010    1.8118   -3.3962 C.3       1 <0>         0.1229
     13 H2         -0.2519    2.5948   -2.6395 H         1 <0>         0.1213
     14 C10        -0.3321    2.4434   -4.7920 C.3       1 <0>         0.1350
     15 H3         -0.6021    1.6858   -5.5277 H         1 <0>         0.0370
     16 C11         1.0266    2.9999   -5.1205 C.2       1 <0>        -0.2632
     17 C12         2.1186    2.6372   -4.4611 C.2       1 <0>         0.0483
     18 O2          2.1027    1.7474   -3.4386 O.3       1 <0>        -0.2684
     19 C13         3.4067    3.2272   -4.8577 C.2       1 <0>         0.5360
     20 O3          3.4532    4.0331   -5.7772 O.co2     1 <0>        -0.6674
     21 O4          4.4315    2.9120   -4.2680 O.co2     1 <0>        -0.6640
     22 N2         -1.3243    3.5264   -4.8175 N.3       1 <0>        -0.8265
     23 N3         -1.5052    1.0027   -3.1922 N.am      1 <0>        -0.7267
     24 C14        -2.5350    1.4957   -2.4762 C.2       1 <0>         0.5051
     25 O5         -2.4650    2.6092   -2.0006 O.2       1 <0>        -0.5215
     26 C15        -3.7737    0.6633   -2.2664 C.3       1 <0>        -0.1723
     27 C16         0.9036   -1.6994   -4.1569 C.3       1 <0>        -0.1636
     28 C17         0.0729   -1.2193   -5.3486 C.3       1 <0>        -0.1708
     29 H4          0.9714    0.1839    1.0368 H         1 <0>         0.0633
     30 H5         -0.1143    1.0787   -0.0535 H         1 <0>         0.0707
     31 H6         -0.6061    0.7596    1.6272 H         1 <0>         0.0365
     32 H7         -0.9543   -1.5526    1.2069 H         1 <0>         0.0674
     33 H8         -1.6269   -0.7448   -0.2296 H         1 <0>         0.0575
     34 H9          1.2162   -1.8456   -0.0526 H         1 <0>         0.0782
     35 H10         0.1069   -3.8850   -0.2733 H         1 <0>         0.0828
     36 H11        -1.4143   -3.1033   -0.8158 H         1 <0>         0.0774
     37 H12         1.1184   -3.6858   -2.4523 H         1 <0>         0.0815
     38 H13        -0.5947   -3.9779   -2.9044 H         1 <0>         0.0853
     39 H14        -1.0367   -1.6326   -3.1962 H         1 <0>         0.0727
     40 H15         1.1158    3.7193   -5.9211 H         1 <0>         0.1381
     41 H16        -1.3638    3.9592   -5.7281 H         1 <0>         0.3433
     42 H17        -2.2335    3.1906   -4.5370 H         1 <0>         0.3347
     43 H18        -1.5612    0.1121   -3.5726 H         1 <0>         0.3930
     44 H19        -3.6637    0.0707   -1.3582 H         1 <0>         0.0915
     45 H20        -4.6396    1.3183   -2.1701 H         1 <0>         0.0940
     46 H21        -3.9137   -0.0011   -3.1191 H         1 <0>         0.0764
     47 H22         1.6778   -0.9651   -3.9343 H         1 <0>         0.0922
     48 H23         1.3683   -2.6551   -4.3993 H         1 <0>         0.0842
     49 H24         0.6253   -1.3963   -6.2715 H         1 <0>         0.0700
     50 H25        -0.8694   -1.7663   -5.3786 H         1 <0>         0.0634
     51 H26        -0.1290   -0.1532   -5.2449 H         1 <0>         0.0605
@<TRIPOS>BOND
     1    1    2 1
     2    1   29 1
     3    1   30 1
     4    1   31 1
     5    2    3 1
     6    2   32 1
     7    2   33 1
     8    3    7 1
     9    3    4 1
    10    3   34 1
    11    4    5 1
    12    4   35 1
    13    4   36 1
    14    5    6 1
    15    5   37 1
    16    5   38 1
    17    6    7 1
    18    6   27 1
    19    6   39 1
    20    7    8 am
    21    8    9 2
    22    8   10 1
    23   10   11 1
    24   10   18 1
    25   10   12 1
    26   12   13 1
    27   12   14 1
    28   12   23 1
    29   14   15 1
    30   14   16 1
    31   14   22 1
    32   16   17 2
    33   16   40 1
    34   17   18 1
    35   17   19 1
    36   19   20 2
    37   19   21 1
    38   22   41 1
    39   22   42 1
    40   23   24 am
    41   23   43 1
    42   24   25 2
    43   24   26 1
    44   26   44 1
    45   26   45 1
    46   26   46 1
    47   27   28 1
    48   27   47 1
    49   27   48 1
    50   28   49 1
    51   28   50 1
    52   28   51 1
@<TRIPOS>MOLECULE
CHEMBL436250
   46    47     0     0     0
SMALL
USER_CHARGES

@<TRIPOS>ATOM
      1 C1         -0.6246    0.9853   -0.5539 C.3       1 <0>        -0.1688
      2 C2         -0.3904   -0.5191   -0.4026 C.3       1 <0>         0.1452
      3 C3         -1.6761   -1.2161    0.1083 C.3       1 <0>        -0.1271
      4 C4         -1.0953   -2.4913    0.7745 C.3       1 <0>        -0.1245
      5 C5          0.2347   -1.9915    1.3769 C.3       1 <0>         0.1220
      6 N1          0.6193   -0.7790    0.6397 N.am      1 <0>        -0.5925
      7 C6          1.7140   -0.0294    0.8771 C.2       1 <0>         0.5509
      8 O1          1.8899    0.9996    0.2598 O.2       1 <0>        -0.4896
      9 C7          2.7193   -0.4698    1.9098 C.3       1 <0>         0.0281
     10 H1          2.9995   -1.5078    1.7302 H         1 <0>         0.0970
     11 C8          2.1131   -0.3332    3.3130 C.3       1 <0>         0.0972
     12 H2          1.1982   -0.9223    3.3771 H         1 <0>         0.1230
     13 C9          3.1347   -0.8529    4.3299 C.3       1 <0>         0.0782
     14 H3          2.8283   -0.5611    5.3344 H         1 <0>         0.1591
     15 C10         4.4864   -0.2655    4.0272 C.2       1 <0>        -0.3788
     16 C11         4.7740    0.2814    2.8537 C.2       1 <0>         0.1433
     17 O2          3.8804    0.3623    1.8377 O.3       1 <0>        -0.2424
     18 C12         6.1254    0.8241    2.6445 C.2       1 <0>         0.5199
     19 O3          6.9544    0.7647    3.5425 O.co2     1 <0>        -0.6452
     20 O4          6.4204    1.3347    1.5724 O.co2     1 <0>        -0.6309
     21 N2          3.2073   -2.3178    4.2463 N.4       1 <0>        -0.6344
     22 N3          1.8142    1.0746    3.5871 N.am      1 <0>        -0.7157
     23 C13         0.6474    1.6084    3.1748 C.2       1 <0>         0.5200
     24 O5         -0.1552    0.9234    2.5769 O.2       1 <0>        -0.5209
     25 C14         0.3400    3.0565    3.4567 C.3       1 <0>        -0.1693
     26 C15         1.3145   -3.0633    1.2151 C.3       1 <0>        -0.1763
     27 H4          0.3094    1.4719   -0.8349 H         1 <0>         0.0840
     28 H5         -1.3726    1.1606   -1.3270 H         1 <0>         0.0565
     29 H6         -0.9773    1.3951    0.3926 H         1 <0>         0.0684
     30 H7         -0.0748   -0.9506   -1.3525 H         1 <0>         0.0731
     31 H8         -2.1934   -0.5946    0.8391 H         1 <0>         0.0830
     32 H9         -2.3361   -1.4741   -0.7199 H         1 <0>         0.0837
     33 H10        -1.7609   -2.8546    1.5576 H         1 <0>         0.0831
     34 H11        -0.9143   -3.2669    0.0304 H         1 <0>         0.0802
     35 H12         0.0983   -1.7560    2.4324 H         1 <0>         0.0747
     36 H13         5.2486   -0.2898    4.7920 H         1 <0>         0.1663
     37 H14         3.4910   -2.5879    3.3165 H         1 <0>         0.4240
     38 H15         3.8800   -2.6599    4.9159 H         1 <0>         0.4432
     39 H16         2.4561    1.6224    4.0653 H         1 <0>         0.4154
     40 H17         1.1721    3.5058    3.9987 H         1 <0>         0.0793
     41 H18         0.1909    3.5862    2.5158 H         1 <0>         0.1021
     42 H19        -0.5656    3.1250    4.0596 H         1 <0>         0.0988
     43 H20         1.6302   -3.1066    0.1728 H         1 <0>         0.0789
     44 H21         2.1697   -2.8151    1.8438 H         1 <0>         0.0302
     45 H22         0.9129   -4.0316    1.5137 H         1 <0>         0.0822
     46 H23         2.3007   -2.7116    4.4490 H         1 <0>         0.4255
@<TRIPOS>BOND
     1    1    2 1
     2    1   27 1
     3    1   28 1
     4    1   29 1
     5    2    6 1
     6    2    3 1
     7    2   30 1
     8    3    4 1
     9    3   31 1
    10    3   32 1
    11    4    5 1
    12    4   33 1
    13    4   34 1
    14    5    6 1
    15    5   26 1
    16    5   35 1
    17    6    7 am
    18    7    8 2
    19    7    9 1
    20    9   10 1
    21    9   17 1
    22    9   11 1
    23   11   12 1
    24   11   13 1
    25   11   22 1
    26   13   14 1
    27   13   15 1
    28   13   21 1
    29   15   16 2
    30   15   36 1
    31   16   17 1
    32   16   18 1
    33   18   19 2
    34   18   20 1
    35   21   37 1
    36   21   38 1
    37   21   46 1
    38   22   23 am
    39   22   39 1
    40   23   24 2
    41   23   25 1
    42   25   40 1
    43   25   41 1
    44   25   42 1
    45   26   43 1
    46   26   44 1
    47   26   45 1
@<TRIPOS>MOLECULE
CHEMBL436250__1
   45    46     0     0     0
SMALL
USER_CHARGES

@<TRIPOS>ATOM
      1 C1         -0.6121    1.0197   -0.4982 C.3       1 <0>        -0.1674
      2 C2         -0.4091   -0.4905   -0.3608 C.3       1 <0>         0.1371
      3 C3         -1.7045   -1.1636    0.1575 C.3       1 <0>        -0.1303
      4 C4         -1.1450   -2.4563    0.8082 C.3       1 <0>        -0.1256
      5 C5          0.2013   -1.9900    1.4011 C.3       1 <0>         0.1191
      6 N1          0.6049   -0.7803    0.6694 N.am      1 <0>        -0.6124
      7 C6          1.7178   -0.0564    0.9017 C.2       1 <0>         0.5437
      8 O1          1.9115    0.9716    0.2880 O.2       1 <0>        -0.5038
      9 C7          2.7213   -0.5244    1.9239 C.3       1 <0>         0.0563
     10 H1          2.9897   -1.5622    1.7267 H         1 <0>         0.1200
     11 C8          2.1208   -0.4038    3.3311 C.3       1 <0>         0.1225
     12 H2          1.1998   -0.9839    3.3886 H         1 <0>         0.1034
     13 C9          3.1397   -0.9510    4.3362 C.3       1 <0>         0.1269
     14 H3          2.8396   -0.6720    5.3463 H         1 <0>         0.0506
     15 C10         4.4969   -0.3735    4.0387 C.2       1 <0>        -0.2660
     16 C11         4.7869    0.1892    2.8733 C.2       1 <0>         0.0556
     17 O2          3.8912    0.2961    1.8615 O.3       1 <0>        -0.2705
     18 C12         6.1436    0.7204    2.6685 C.2       1 <0>         0.5341
     19 O3          6.9745    0.6375    3.5629 O.co2     1 <0>        -0.6693
     20 O4          6.4409    1.2451    1.6039 O.co2     1 <0>        -0.6629
     21 N2          3.1961   -2.4149    4.2288 N.3       1 <0>        -0.8380
     22 N3          1.8382    1.0025    3.6287 N.am      1 <0>        -0.7121
     23 C13         0.8888    1.3229    4.5301 C.2       1 <0>         0.5153
     24 O5          0.2684    0.4470    5.0948 O.2       1 <0>        -0.5583
     25 C14         0.5980    2.7695    4.8363 C.3       1 <0>        -0.1707
     26 C15         1.2560   -3.0835    1.2205 C.3       1 <0>        -0.1822
     27 H4          0.3294    1.4882   -0.7848 H         1 <0>         0.0913
     28 H5         -1.3637    1.2172   -1.2626 H         1 <0>         0.0581
     29 H6         -0.9466    1.4296    0.4547 H         1 <0>         0.0528
     30 H7         -0.1123   -0.9213   -1.3170 H         1 <0>         0.0752
     31 H8         -2.2011   -0.5368    0.8981 H         1 <0>         0.0761
     32 H9         -2.3780   -1.4007   -0.6661 H         1 <0>         0.0829
     33 H10        -1.8107   -2.8112    1.5950 H         1 <0>         0.0820
     34 H11        -0.9881   -3.2297    0.0564 H         1 <0>         0.0795
     35 H12         0.0804   -1.7599    2.4596 H         1 <0>         0.0793
     36 H13         5.2611   -0.4183    4.8006 H         1 <0>         0.1317
     37 H14         3.8616   -2.8001    4.8821 H         1 <0>         0.3500
     38 H15         2.2826   -2.8226    4.3605 H         1 <0>         0.3333
     39 H16         2.3343    1.7031    3.1771 H         1 <0>         0.4120
     40 H17         1.2493    3.4058    4.2371 H         1 <0>         0.0786
     41 H18        -0.4429    2.9891    4.5989 H         1 <0>         0.0927
     42 H19         0.7773    2.9601    5.8944 H         1 <0>         0.0950
     43 H20         1.5512   -3.1341    0.1724 H         1 <0>         0.0631
     44 H21         2.1277   -2.8522    1.8327 H         1 <0>         0.0801
     45 H22         0.8406   -4.0433    1.5277 H         1 <0>         0.0714
@<TRIPOS>BOND
     1    1    2 1
     2    1   27 1
     3    1   28 1
     4    1   29 1
     5    2    6 1
     6    2    3 1
     7    2   30 1
     8    3    4 1
     9    3   31 1
    10    3   32 1
    11    4    5 1
    12    4   33 1
    13    4   34 1
    14    5    6 1
    15    5   26 1
    16    5   35 1
    17    6    7 am
    18    7    8 2
    19    7    9 1
    20    9   10 1
    21    9   17 1
    22    9   11 1
    23   11   12 1
    24   11   13 1
    25   11   22 1
    26   13   14 1
    27   13   15 1
    28   13   21 1
    29   15   16 2
    30   15   36 1
    31   16   17 1
    32   16   18 1
    33   18   19 2
    34   18   20 1
    35   21   37 1
    36   21   38 1
    37   22   23 am
    38   22   39 1
    39   23   24 2
    40   23   25 1
    41   25   40 1
    42   25   41 1
    43   25   42 1
    44   26   43 1
    45   26   44 1
    46   26   45 1
@<TRIPOS>MOLECULE
CHEMBL436250__2
   46    47     0     0     0
SMALL
USER_CHARGES

@<TRIPOS>ATOM
      1 C1          0.2020   -2.6781    2.1540 C.3       1 <0>        -0.1776
      2 C2         -0.2449   -1.2180    2.0579 C.3       1 <0>         0.1219
      3 C3         -1.5693   -1.1252    1.2710 C.3       1 <0>        -0.1228
      4 C4         -1.3857    0.1676    0.4329 C.3       1 <0>        -0.1246
      5 C5          0.1273    0.1134    0.1049 C.3       1 <0>         0.1415
      6 N1          0.7573   -0.4359    1.3193 N.am      1 <0>        -0.5893
      7 C6          2.0395   -0.2512    1.6912 C.2       1 <0>         0.5490
      8 O1          2.7588    0.4811    1.0453 O.2       1 <0>        -0.4938
      9 C7          2.5794   -0.9547    2.9097 C.3       1 <0>         0.0300
     10 H1          2.3842   -2.0243    2.8329 H         1 <0>         0.0975
     11 C8          1.9065   -0.3953    4.1705 C.3       1 <0>         0.0946
     12 H2          0.8256   -0.5137    4.0935 H         1 <0>         0.1247
     13 C9          2.4272   -1.1785    5.3802 C.3       1 <0>         0.0782
     14 H3          2.1454   -0.6607    6.2970 H         1 <0>         0.1594
     15 C10         3.9263   -1.2815    5.3028 C.2       1 <0>        -0.3787
     16 C11         4.5938   -1.0642    4.1776 C.2       1 <0>         0.1431
     17 O2          3.9879   -0.7280    3.0126 O.3       1 <0>        -0.2426
     18 C12         6.0591   -1.1955    4.1940 C.2       1 <0>         0.5199
     19 O3          6.6346   -1.4989    5.2303 O.co2     1 <0>        -0.6451
     20 O4          6.7023   -1.0012    3.1714 O.co2     1 <0>        -0.6307
     21 N2          1.8429   -2.5263    5.3795 N.4       1 <0>        -0.6344
     22 N3          2.2385    1.0238    4.3194 N.am      1 <0>        -0.7157
     23 C13         1.5098    1.9575    3.6763 C.2       1 <0>         0.5202
     24 O5          0.5792    1.6229    2.9742 O.2       1 <0>        -0.5234
     25 C14         1.8513    3.4172    3.8295 C.3       1 <0>        -0.1692
     26 C15         0.3805   -0.8084   -1.0897 C.3       1 <0>        -0.1622
     27 H4          1.0046   -2.7649    2.8865 H         1 <0>         0.0294
     28 H5         -0.6407   -3.2964    2.4633 H         1 <0>         0.0820
     29 H6          0.5606   -3.0131    1.1807 H         1 <0>         0.0794
     30 H7         -0.3753   -0.8037    3.0576 H         1 <0>         0.0761
     31 H8         -1.6933   -1.9916    0.6213 H         1 <0>         0.0803
     32 H9         -2.4157   -1.0272    1.9508 H         1 <0>         0.0826
     33 H10        -1.9844    0.1314   -0.4773 H         1 <0>         0.0851
     34 H11        -1.6263    1.0525    1.0220 H         1 <0>         0.0824
     35 H12         0.5071    1.1143   -0.1000 H         1 <0>         0.0881
     36 H13         4.4778   -1.5410    6.1944 H         1 <0>         0.1666
     37 H14         2.1040   -3.0056    4.5308 H         1 <0>         0.4243
     38 H15         2.1859   -3.0420    6.1761 H         1 <0>         0.4432
     39 H16         2.9828    1.2914    4.8810 H         1 <0>         0.4157
     40 H17         2.7097    3.5218    4.4931 H         1 <0>         0.0797
     41 H18         2.0931    3.8382    2.8536 H         1 <0>         0.1022
     42 H19         0.9982    3.9475    4.2527 H         1 <0>         0.0994
     43 H20        -0.0646   -0.3737   -1.9848 H         1 <0>         0.0700
     44 H21         1.4541   -0.9249   -1.2376 H         1 <0>         0.0609
     45 H22        -0.0678   -1.7833   -0.8978 H         1 <0>         0.0571
     46 H23         0.8376   -2.4571    5.4311 H         1 <0>         0.4254
@<TRIPOS>BOND
     1    1    2 1
     2    1   27 1
     3    1   28 1
     4    1   29 1
     5    2    6 1
     6    2    3 1
     7    2   30 1
     8    3    4 1
     9    3   31 1
    10    3   32 1
    11    4    5 1
    12    4   33 1
    13    4   34 1
    14    5    6 1
    15    5   26 1
    16    5   35 1
    17    6    7 am
    18    7    8 2
    19    7    9 1
    20    9   10 1
    21    9   17 1
    22    9   11 1
    23   11   12 1
    24   11   13 1
    25   11   22 1
    26   13   14 1
    27   13   15 1
    28   13   21 1
    29   15   16 2
    30   15   36 1
    31   16   17 1
    32   16   18 1
    33   18   19 2
    34   18   20 1
    35   21   37 1
    36   21   38 1
    37   21   46 1
    38   22   23 am
    39   22   39 1
    40   23   24 2
    41   23   25 1
    42   25   40 1
    43   25   41 1
    44   25   42 1
    45   26   43 1
    46   26   44 1
    47   26   45 1
@<TRIPOS>MOLECULE
CHEMBL436250__3
   45    46     0     0     0
SMALL
USER_CHARGES

@<TRIPOS>ATOM
      1 C1          0.1710   -2.6827    2.1403 C.3       1 <0>        -0.1830
      2 C2         -0.2509   -1.2143    2.0593 C.3       1 <0>         0.1183
      3 C3         -1.5820   -1.0924    1.2880 C.3       1 <0>        -0.1241
      4 C4         -1.3847    0.2030    0.4570 C.3       1 <0>        -0.1288
      5 C5          0.1234    0.1243    0.1117 C.3       1 <0>         0.1331
      6 N1          0.7569   -0.4447    1.3152 N.am      1 <0>        -0.6109
      7 C6          2.0462   -0.2855    1.6740 C.2       1 <0>         0.5423
      8 O1          2.7712    0.4388    1.0254 O.2       1 <0>        -0.5071
      9 C7          2.5870   -1.0076    2.8812 C.3       1 <0>         0.0580
     10 H1          2.3813   -2.0744    2.7937 H         1 <0>         0.1201
     11 C8          1.9272   -0.4561    4.1523 C.3       1 <0>         0.1203
     12 H2          0.8448   -0.5636    4.0808 H         1 <0>         0.1054
     13 C9          2.4480   -1.2576    5.3499 C.3       1 <0>         0.1269
     14 H3          2.1767   -0.7475    6.2742 H         1 <0>         0.0508
     15 C10         3.9456   -1.3737    5.2620 C.2       1 <0>        -0.2659
     16 C11         4.6081   -1.1500    4.1351 C.2       1 <0>         0.0555
     17 O2          3.9982   -0.7952    2.9777 O.3       1 <0>        -0.2707
     18 C12         6.0722   -1.2951    4.1409 C.2       1 <0>         0.5341
     19 O3          6.6512   -1.6155    5.1701 O.co2     1 <0>        -0.6692
     20 O4          6.7108   -1.0954    3.1165 O.co2     1 <0>        -0.6628
     21 N2          1.8511   -2.5998    5.3379 N.3       1 <0>        -0.8380
     22 N3          2.2734    0.9580    4.3150 N.am      1 <0>        -0.7125
     23 C13         1.4619    1.7741    5.0164 C.2       1 <0>         0.5155
     24 O5          0.4451    1.3377    5.5129 O.2       1 <0>        -0.5581
     25 C14         1.8180    3.2288    5.1837 C.3       1 <0>        -0.1708
     26 C15         0.3469   -0.7932   -1.0921 C.3       1 <0>        -0.1590
     27 H4          0.9843   -2.7880    2.8583 H         1 <0>         0.0800
     28 H5         -0.6774   -3.2873    2.4610 H         1 <0>         0.0710
     29 H6          0.5066   -3.0189    1.1592 H         1 <0>         0.0631
     30 H7         -0.3628   -0.8050    3.0634 H         1 <0>         0.0805
     31 H8         -1.7286   -1.9517    0.6337 H         1 <0>         0.0797
     32 H9         -2.4190   -0.9842    1.9778 H         1 <0>         0.0816
     33 H10        -1.9939    0.1840   -0.4467 H         1 <0>         0.0845
     34 H11        -1.6030    1.0878    1.0549 H         1 <0>         0.0753
     35 H12         0.5187    1.1198   -0.0904 H         1 <0>         0.0857
     36 H13         4.5001   -1.6483    6.1471 H         1 <0>         0.1318
     37 H14         2.1792   -3.1484    6.1186 H         1 <0>         0.3500
     38 H15         0.8435   -2.5474    5.3308 H         1 <0>         0.3333
     39 H16         3.0866    1.3070    3.9178 H         1 <0>         0.4118
     40 H17         2.7586    3.4338    4.6724 H         1 <0>         0.0786
     41 H18         1.0294    3.8475    4.7556 H         1 <0>         0.0929
     42 H19         1.9238    3.4573    6.2443 H         1 <0>         0.0951
     43 H20        -0.1051   -0.3470   -1.9779 H         1 <0>         0.0651
     44 H21         1.4166   -0.9230   -1.2563 H         1 <0>         0.0621
     45 H22        -0.1115   -1.7632   -0.8996 H         1 <0>         0.0588
@<TRIPOS>BOND
     1    1    2 1
     2    1   27 1
     3    1   28 1
     4    1   29 1
     5    2    6 1
     6    2    3 1
     7    2   30 1
     8    3    4 1
     9    3   31 1
    10    3   32 1
    11    4    5 1
    12    4   33 1
    13    4   34 1
    14    5    6 1
    15    5   26 1
    16    5   35 1
    17    6    7 am
    18    7    8 2
    19    7    9 1
    20    9   10 1
    21    9   17 1
    22    9   11 1
    23   11   12 1
    24   11   13 1
    25   11   22 1
    26   13   14 1
    27   13   15 1
    28   13   21 1
    29   15   16 2
    30   15   36 1
    31   16   17 1
    32   16   18 1
    33   18   19 2
    34   18   20 1
    35   21   37 1
    36   21   38 1
    37   22   23 am
    38   22   39 1
    39   23   24 2
    40   23   25 1
    41   25   40 1
    42   25   41 1
    43   25   42 1
    44   26   43 1
    45   26   44 1
    46   26   45 1
@<TRIPOS>MOLECULE
CHEMBL436250__4
   46    47     0     0     0
SMALL
USER_CHARGES

@<TRIPOS>ATOM
      1 C1         -0.7136    1.9446    0.5780 C.3       1 <0>        -0.1662
      2 C2          0.0685    0.7066    0.1344 C.3       1 <0>         0.1405
      3 C3          1.1799    1.1147   -0.8554 C.3       1 <0>        -0.1290
      4 C4          2.3605    0.1923   -0.4518 C.3       1 <0>        -0.1256
      5 C5          2.1828    0.1142    1.0851 C.3       1 <0>         0.1218
      6 N1          0.7239    0.0867    1.2954 N.am      1 <0>        -0.6046
      7 C6          0.0951   -0.4219    2.3735 C.2       1 <0>         0.5563
      8 O1         -1.1149   -0.5037    2.3874 O.2       1 <0>        -0.4884
      9 C7          0.8955   -0.8890    3.5619 C.3       1 <0>         0.0325
     10 H1          1.8606   -0.3824    3.5767 H         1 <0>         0.0926
     11 C8          1.1092   -2.4064    3.4774 C.3       1 <0>         0.0895
     12 H2          1.6104   -2.6554    2.5420 H         1 <0>         0.1325
     13 C9          1.9823   -2.8348    4.6614 C.3       1 <0>         0.0776
     14 H3          1.9610   -3.9207    4.7545 H         1 <0>         0.1598
     15 C10         1.4534   -2.2126    5.9251 C.2       1 <0>        -0.3768
     16 C11         0.6240   -1.1778    5.9114 C.2       1 <0>         0.1431
     17 O2          0.1815   -0.6011    4.7673 O.3       1 <0>        -0.2475
     18 C12         0.1642   -0.6296    7.1969 C.2       1 <0>         0.5205
     19 O3          0.5472   -1.1280    8.2467 O.co2     1 <0>        -0.6444
     20 O4         -0.6012    0.3248    7.2163 O.co2     1 <0>        -0.6325
     21 N2          3.3642   -2.3895    4.4374 N.4       1 <0>        -0.6351
     22 N3         -0.1839   -3.0917    3.5425 N.am      1 <0>        -0.7145
     23 C13        -0.9121   -3.2648    2.4217 C.2       1 <0>         0.5312
     24 O5         -0.4969   -2.8532    1.3592 O.2       1 <0>        -0.5320
     25 C14        -2.2424   -3.9698    2.4888 C.3       1 <0>        -0.1675
     26 C15         2.8236   -1.1635    1.6309 C.3       1 <0>        -0.1924
     27 H4         -0.0304    2.6628    1.0312 H         1 <0>         0.0570
     28 H5         -1.1965    2.3986   -0.2873 H         1 <0>         0.0692
     29 H6         -1.4710    1.6543    1.3060 H         1 <0>         0.0691
     30 H7         -0.6060   -0.0088   -0.3362 H         1 <0>         0.0820
     31 H8          0.8720    0.9199   -1.8827 H         1 <0>         0.0868
     32 H9          1.4473    2.1632   -0.7241 H         1 <0>         0.0814
     33 H10         2.2600   -0.7928   -0.9074 H         1 <0>         0.0812
     34 H11         3.3170    0.6456   -0.7120 H         1 <0>         0.0878
     35 H12         2.6185    0.9919    1.5624 H         1 <0>         0.0845
     36 H13         1.7593   -2.6231    6.8761 H         1 <0>         0.1665
     37 H14         3.3839   -1.3844    4.3514 H         1 <0>         0.4256
     38 H15         3.9391   -2.6717    5.2171 H         1 <0>         0.4418
     39 H16        -0.5161   -3.4210    4.3924 H         1 <0>         0.4140
     40 H17        -2.4457   -4.2650    3.5182 H         1 <0>         0.0786
     41 H18        -3.0275   -3.2981    2.1416 H         1 <0>         0.1029
     42 H19        -2.2161   -4.8563    1.8551 H         1 <0>         0.0972
     43 H20         3.8536   -1.2315    1.2809 H         1 <0>         0.0893
     44 H21         2.8109   -1.1394    2.7205 H         1 <0>         0.0308
     45 H22         2.2627   -2.0298    1.2800 H         1 <0>         0.0876
     46 H23         3.7187   -2.8066    3.5898 H         1 <0>         0.4252
@<TRIPOS>BOND
     1    1    2 1
     2    1   27 1
     3    1   28 1
     4    1   29 1
     5    2    6 1
     6    2    3 1
     7    2   30 1
     8    3    4 1
     9    3   31 1
    10    3   32 1
    11    4    5 1
    12    4   33 1
    13    4   34 1
    14    5    6 1
    15    5   26 1
    16    5   35 1
    17    6    7 am
    18    7    8 2
    19    7    9 1
    20    9   10 1
    21    9   17 1
    22    9   11 1
    23   11   12 1
    24   11   13 1
    25   11   22 1
    26   13   14 1
    27   13   15 1
    28   13   21 1
    29   15   16 2
    30   15   36 1
    31   16   17 1
    32   16   18 1
    33   18   19 2
    34   18   20 1
    35   21   37 1
    36   21   38 1
    37   21   46 1
    38   22   23 am
    39   22   39 1
    40   23   24 2
    41   23   25 1
    42   25   40 1
    43   25   41 1
    44   25   42 1
    45   26   43 1
    46   26   44 1
    47   26   45 1
@<TRIPOS>MOLECULE
CHEMBL436250__5
   45    46     0     0     0
SMALL
USER_CHARGES

@<TRIPOS>ATOM
      1 C1         -0.7162    1.9424    0.5814 C.3       1 <0>        -0.1645
      2 C2          0.0665    0.7052    0.1368 C.3       1 <0>         0.1364
      3 C3          1.1768    1.1145   -0.8539 C.3       1 <0>        -0.1280
      4 C4          2.3585    0.1931   -0.4516 C.3       1 <0>        -0.1275
      5 C5          2.1822    0.1143    1.0854 C.3       1 <0>         0.1239
      6 N1          0.7235    0.0856    1.2970 N.am      1 <0>        -0.6130
      7 C6          0.0961   -0.4239    2.3756 C.2       1 <0>         0.5466
      8 O1         -1.1138   -0.5070    2.3903 O.2       1 <0>        -0.5102
      9 C7          0.8979   -0.8903    3.5632 C.3       1 <0>         0.0597
     10 H1          1.8625   -0.3829    3.5773 H         1 <0>         0.1138
     11 C8          1.1129   -2.4075    3.4785 C.3       1 <0>         0.1124
     12 H2          1.6135   -2.6561    2.5427 H         1 <0>         0.1150
     13 C9          1.9874   -2.8352    4.6618 C.3       1 <0>         0.1255
     14 H3          1.9672   -3.9210    4.7549 H         1 <0>         0.0523
     15 C10         1.4589   -2.2135    5.9260 C.2       1 <0>        -0.2643
     16 C11         0.6286   -1.1794    5.9129 C.2       1 <0>         0.0555
     17 O2          0.1846   -0.6030    4.7692 O.3       1 <0>        -0.2748
     18 C12         0.1693   -0.6316    7.1989 C.2       1 <0>         0.5346
     19 O3          0.5536   -1.1298    8.2483 O.co2     1 <0>        -0.6684
     20 O4         -0.5969    0.3221    7.2189 O.co2     1 <0>        -0.6643
     21 N2          3.3687   -2.3886    4.4367 N.3       1 <0>        -0.8385
     22 N3         -0.1796   -3.0940    3.5447 N.am      1 <0>        -0.7078
     23 C13        -0.3194   -4.3209    3.0047 C.2       1 <0>         0.5151
     24 O5          0.6248   -4.8566    2.4638 O.2       1 <0>        -0.5619
     25 C14        -1.6489   -5.0271    3.0728 C.3       1 <0>        -0.1699
     26 C15         2.8245   -1.1629    1.6303 C.3       1 <0>        -0.2056
     27 H4         -0.0332    2.6611    1.0342 H         1 <0>         0.0579
     28 H5         -1.2002    2.3962   -0.2834 H         1 <0>         0.0639
     29 H6         -1.4728    1.6512    1.3100 H         1 <0>         0.0701
     30 H7         -0.6077   -0.0106   -0.3335 H         1 <0>         0.0745
     31 H8          0.8682    0.9197   -1.8810 H         1 <0>         0.0810
     32 H9          1.4434    2.1632   -0.7225 H         1 <0>         0.0792
     33 H10         2.2585   -0.7920   -0.9073 H         1 <0>         0.0770
     34 H11         3.3144    0.6472   -0.7125 H         1 <0>         0.0848
     35 H12         2.6175    0.9923    1.5627 H         1 <0>         0.0817
     36 H13         1.7660   -2.6236    6.8767 H         1 <0>         0.1321
     37 H14         3.9657   -2.6588    5.2039 H         1 <0>         0.3496
     38 H15         3.7242   -2.7406    3.5605 H         1 <0>         0.3346
     39 H16        -0.9347   -2.6656    3.9773 H         1 <0>         0.4133
     40 H17        -2.3698   -4.3952    3.5916 H         1 <0>         0.0788
     41 H18        -2.0046   -5.2303    2.0627 H         1 <0>         0.0924
     42 H19        -1.5340   -5.9666    3.6134 H         1 <0>         0.0939
     43 H20         3.8545   -1.2298    1.2797 H         1 <0>         0.0750
     44 H21         2.8125   -1.1394    2.7200 H         1 <0>         0.1023
     45 H22         2.2643   -2.0296    1.2794 H         1 <0>         0.0656
@<TRIPOS>BOND
     1    1    2 1
     2    1   27 1
     3    1   28 1
     4    1   29 1
     5    2    6 1
     6    2    3 1
     7    2   30 1
     8    3    4 1
     9    3   31 1
    10    3   32 1
    11    4    5 1
    12    4   33 1
    13    4   34 1
    14    5    6 1
    15    5   26 1
    16    5   35 1
    17    6    7 am
    18    7    8 2
    19    7    9 1
    20    9   10 1
    21    9   17 1
    22    9   11 1
    23   11   12 1
    24   11   13 1
    25   11   22 1
    26   13   14 1
    27   13   15 1
    28   13   21 1
    29   15   16 2
    30   15   36 1
    31   16   17 1
    32   16   18 1
    33   18   19 2
    34   18   20 1
    35   21   37 1
    36   21   38 1
    37   22   23 am
    38   22   39 1
    39   23   24 2
    40   23   25 1
    41   25   40 1
    42   25   41 1
    43   25   42 1
    44   26   43 1
    45   26   44 1
    46   26   45 1
@<TRIPOS>MOLECULE
CHEMBL81286
   54    55     0     0     0
SMALL
USER_CHARGES

@<TRIPOS>ATOM
      1 C1         -0.5657   -0.3335    0.7303 C.3       1 <0>        -0.1538
      2 C2          0.4977   -1.1334   -0.0249 C.3       1 <0>        -0.1207
      3 C3          1.3108   -0.1894   -0.9130 C.3       1 <0>         0.0888
      4 H1          1.7077    0.6263   -0.3086 H         1 <0>         0.0683
      5 C4          2.4676   -0.9603   -1.5520 C.3       1 <0>        -0.1328
      6 C5          3.3630    0.0109   -2.3239 C.3       1 <0>        -0.0853
      7 C6          4.5628   -0.7283   -2.8578 C.ar      1 <0>        -0.0808
      8 C7          5.6979   -0.8572   -2.0793 C.ar      1 <0>        -0.1174
      9 C8          6.7985   -1.5352   -2.5690 C.ar      1 <0>        -0.1140
     10 C9          6.7639   -2.0847   -3.8370 C.ar      1 <0>        -0.1240
     11 C10         5.6286   -1.9565   -4.6151 C.ar      1 <0>        -0.1175
     12 C11         4.5264   -1.2822   -4.1238 C.ar      1 <0>        -0.1253
     13 O1          0.4694    0.3430   -1.9380 O.3       1 <0>        -0.3491
     14 C12         0.7371    1.7098   -2.2581 C.3       1 <0>         0.1178
     15 H2          1.8111    1.8889   -2.2082 H         1 <0>         0.0780
     16 C13         0.0380    2.5982   -1.2707 C.2       1 <0>        -0.1656
     17 C14        -0.6107    3.6962   -1.6045 C.2       1 <0>        -0.1569
     18 C15        -0.7392    4.1928   -3.0151 C.3       1 <0>        -0.0824
     19 C16         0.3058    3.5200   -3.9075 C.3       1 <0>         0.0193
     20 H3          1.2989    3.8884   -3.6502 H         1 <0>         0.1490
     21 C17         0.2387    2.0061   -3.6740 C.3       1 <0>         0.1262
     22 H4         -0.7905    1.6628   -3.7793 H         1 <0>         0.1356
     23 N1          1.0917    1.3224   -4.6492 N.am      1 <0>        -0.7511
     24 C18         0.6767    0.1738   -5.2194 C.2       1 <0>         0.5168
     25 O2         -0.4379   -0.2473   -4.9931 O.2       1 <0>        -0.5088
     26 C19         1.5976   -0.5871   -6.1380 C.3       1 <0>        -0.1791
     27 N2          0.0180    3.8197   -5.3165 N.4       1 <0>        -0.6295
     28 C20        -1.2428    4.4777   -0.5359 C.2       1 <0>         0.5107
     29 O3         -1.1591    4.1046    0.6266 O.co2     1 <0>        -0.6710
     30 O4         -1.8536    5.5029   -0.8070 O.co2     1 <0>        -0.6869
     31 H5         -0.0795    0.3863    1.3887 H         1 <0>         0.0563
     32 H6         -1.1973    0.1956    0.0167 H         1 <0>         0.0641
     33 H7         -1.1780   -1.0127    1.3236 H         1 <0>         0.0545
     34 H8          1.1608   -1.6213    0.6895 H         1 <0>         0.0740
     35 H9          0.0129   -1.8877   -0.6446 H         1 <0>         0.0691
     36 H10         3.0510   -1.4515   -0.7732 H         1 <0>         0.0763
     37 H11         2.0705   -1.7103   -2.2360 H         1 <0>         0.0719
     38 H12         2.8021    0.4407   -3.1539 H         1 <0>         0.0714
     39 H13         3.6939    0.8077   -1.6578 H         1 <0>         0.0705
     40 H14         5.7248   -0.4279   -1.0886 H         1 <0>         0.1216
     41 H15         7.6855   -1.6354   -1.9610 H         1 <0>         0.1227
     42 H16         7.6241   -2.6138   -4.2198 H         1 <0>         0.1217
     43 H17         5.6017   -2.3855   -5.6059 H         1 <0>         0.1211
     44 H18         3.6381   -1.1853   -4.7302 H         1 <0>         0.1175
     45 H19         0.0678    2.3219   -0.2271 H         1 <0>         0.1377
     46 H20        -1.7365    3.9626   -3.3898 H         1 <0>         0.0960
     47 H21        -0.5888    5.2722   -3.0332 H         1 <0>         0.1105
     48 H22         1.9553    1.6963   -4.8846 H         1 <0>         0.4004
     49 H23         2.5779   -0.1106   -6.1461 H         1 <0>         0.0789
     50 H24         1.6957   -1.6138   -5.7853 H         1 <0>         0.1031
     51 H25         1.1854   -0.5874   -7.1471 H         1 <0>         0.1001
     52 H26         0.0470    4.8180   -5.4607 H         1 <0>         0.4397
     53 H27         0.7084    3.3750   -5.9028 H         1 <0>         0.4271
     54 H28        -0.8990    3.4721   -5.5538 H         1 <0>         0.4352
@<TRIPOS>BOND
     1    1    2 1
     2    1   31 1
     3    1   32 1
     4    1   33 1
     5    2    3 1
     6    2   34 1
     7    2   35 1
     8    3    4 1
     9    3    5 1
    10    3   13 1
    11    5    6 1
    12    5   36 1
    13    5   37 1
    14    6    7 1
    15    6   38 1
    16    6   39 1
    17    7   12 ar
    18    7    8 ar
    19    8    9 ar
    20    8   40 1
    21    9   10 ar
    22    9   41 1
    23   10   11 ar
    24   10   42 1
    25   11   12 ar
    26   11   43 1
    27   12   44 1
    28   13   14 1
    29   14   15 1
    30   14   21 1
    31   14   16 1
    32   16   17 2
    33   16   45 1
    34   17   18 1
    35   17   28 1
    36   18   19 1
    37   18   46 1
    38   18   47 1
    39   19   20 1
    40   19   21 1
    41   19   27 1
    42   21   22 1
    43   21   23 1
    44   23   24 am
    45   23   48 1
    46   24   25 2
    47   24   26 1
    48   26   49 1
    49   26   50 1
    50   26   51 1
    51   27   52 1
    52   27   53 1
    53   27   54 1
    54   28   29 2
    55   28   30 1
@<TRIPOS>MOLECULE
CHEMBL81777
   45    45     0     0     0
SMALL
USER_CHARGES

@<TRIPOS>ATOM
      1 C1         -0.0187    1.5258    0.0104 C.3       1 <0>        -0.1680
      2 C2          0.0021   -0.0041    0.0020 C.3       1 <0>        -0.1462
      3 C3         -1.4333   -0.5336    0.0129 C.3       1 <0>         0.0920
      4 H1         -1.9701   -0.1109    0.8621 H         1 <0>         0.0648
      5 C4         -1.4133   -2.0590    0.1302 C.3       1 <0>        -0.0876
      6 C5         -2.8242   -2.5711    0.2645 C.2       1 <0>        -0.1548
      7 C6         -3.2749   -3.4755   -0.5692 C.2       1 <0>        -0.1810
      8 O1         -2.0889   -0.1578   -1.2000 O.3       1 <0>        -0.3360
      9 C7         -2.7597    1.1021   -1.1317 C.3       1 <0>         0.1110
     10 H2         -2.2400    1.7505   -0.4263 H         1 <0>         0.0838
     11 C8         -4.1708    0.8900   -0.6660 C.2       1 <0>        -0.1564
     12 C9         -5.2148    1.5005   -1.1903 C.2       1 <0>        -0.1628
     13 C10        -5.1257    2.4793   -2.3249 C.3       1 <0>        -0.0807
     14 C11        -3.6861    2.9732   -2.4824 C.3       1 <0>         0.0203
     15 H3         -3.4239    3.6123   -1.6393 H         1 <0>         0.1499
     16 C12        -2.7573    1.7537   -2.5161 C.3       1 <0>         0.1301
     17 H4         -3.1147    1.0393   -3.2577 H         1 <0>         0.1262
     18 N1         -1.3984    2.1830   -2.8556 N.am      1 <0>        -0.7540
     19 C13        -0.5344    1.3094   -3.4096 C.2       1 <0>         0.5112
     20 O2         -0.8818    0.1680   -3.6270 O.2       1 <0>        -0.4907
     21 C14         0.8635    1.7510   -3.7588 C.3       1 <0>        -0.1736
     22 N2         -3.5586    3.7309   -3.7345 N.4       1 <0>        -0.6303
     23 C15        -6.5396    1.2070   -0.6328 C.2       1 <0>         0.5115
     24 O3         -6.6520    0.4146    0.2930 O.co2     1 <0>        -0.6719
     25 O4         -7.5324    1.7545   -1.0935 O.co2     1 <0>        -0.6883
     26 H5          1.0039    1.9031    0.0027 H         1 <0>         0.0557
     27 H6         -0.5459    1.8868   -0.8726 H         1 <0>         0.0622
     28 H7         -0.5289    1.8773    0.9072 H         1 <0>         0.0544
     29 H8          0.5123   -0.3556   -0.8948 H         1 <0>         0.0696
     30 H9          0.5293   -0.3651    0.8851 H         1 <0>         0.0729
     31 H10        -0.9551   -2.4861   -0.7619 H         1 <0>         0.0746
     32 H11        -0.8366   -2.3483    1.0088 H         1 <0>         0.0835
     33 H12        -3.4638   -2.1924    1.0480 H         1 <0>         0.1091
     34 H13        -4.2861   -3.8425   -0.4730 H         1 <0>         0.0972
     35 H14        -2.6352   -3.8542   -1.3527 H         1 <0>         0.0924
     36 H15        -4.3405    0.1971    0.1449 H         1 <0>         0.1349
     37 H16        -5.4440    1.9933   -3.2472 H         1 <0>         0.0953
     38 H17        -5.7787    3.3281   -2.1220 H         1 <0>         0.1103
     39 H18        -1.1204    3.0959   -2.6817 H         1 <0>         0.3947
     40 H19         0.9902    2.8004   -3.4928 H         1 <0>         0.0745
     41 H20         1.5839    1.1468   -3.2072 H         1 <0>         0.1000
     42 H21         1.0276    1.6251   -4.8290 H         1 <0>         0.0980
     43 H22        -4.1840    4.5224   -3.7137 H         1 <0>         0.4403
     44 H23        -2.6086    4.0554   -3.8360 H         1 <0>         0.4264
     45 H24        -3.7956    3.1353   -4.5137 H         1 <0>         0.4355
@<TRIPOS>BOND
     1    1    2 1
     2    1   26 1
     3    1   27 1
     4    1   28 1
     5    2    3 1
     6    2   29 1
     7    2   30 1
     8    3    4 1
     9    3    5 1
    10    3    8 1
    11    5    6 1
    12    5   31 1
    13    5   32 1
    14    6    7 2
    15    6   33 1
    16    7   34 1
    17    7   35 1
    18    8    9 1
    19    9   10 1
    20    9   16 1
    21    9   11 1
    22   11   12 2
    23   11   36 1
    24   12   13 1
    25   12   23 1
    26   13   14 1
    27   13   37 1
    28   13   38 1
    29   14   15 1
    30   14   16 1
    31   14   22 1
    32   16   17 1
    33   16   18 1
    34   18   19 am
    35   18   39 1
    36   19   20 2
    37   19   21 1
    38   21   40 1
    39   21   41 1
    40   21   42 1
    41   22   43 1
    42   22   44 1
    43   22   45 1
    44   23   24 2
    45   23   25 1
@<TRIPOS>MOLECULE
CHEMBL167936
   68    70     0     0     0
SMALL
USER_CHARGES

@<TRIPOS>ATOM
      1 C1          0.7229    1.4877   -0.3560 C.3       1 <0>        -0.1540
      2 C2          0.4805   -0.0203   -0.2657 C.3       1 <0>        -0.1496
      3 C3         -1.0115   -0.2852   -0.0542 C.3       1 <0>         0.0969
      4 N1         -1.2252   -1.7157    0.1785 N.am      1 <0>        -0.6058
      5 C4         -1.2462   -2.2402    1.5463 C.3       1 <0>         0.1259
      6 C5         -2.6772   -2.1996    2.0861 C.3       1 <0>        -0.0970
      7 C6         -2.6988   -2.7392    3.4931 C.ar      1 <0>        -0.0837
      8 C7         -2.8949   -4.0898    3.7124 C.ar      1 <0>        -0.1074
      9 C8         -2.9147   -4.5847    5.0030 C.ar      1 <0>        -0.1102
     10 C9         -2.7380   -3.7290    6.0742 C.ar      1 <0>        -0.0772
     11 C10        -2.5410   -2.3785    5.8548 C.ar      1 <0>        -0.1126
     12 C11        -2.5169   -1.8842    4.5640 C.ar      1 <0>        -0.1130
     13 C12        -2.7606   -4.2684    7.4812 C.3       1 <0>        -0.0440
     14 C13        -1.3649   -4.6630    7.8903 C.ar      1 <0>        -0.0750
     15 C14        -0.9099   -5.9455    7.6470 C.ar      1 <0>        -0.1143
     16 C15         0.3703   -6.3075    8.0223 C.ar      1 <0>        -0.1177
     17 C16         1.1957   -5.3869    8.6405 C.ar      1 <0>        -0.1246
     18 C17         0.7410   -4.1042    8.8830 C.ar      1 <0>        -0.1186
     19 C18        -0.5377   -3.7409    8.5038 C.ar      1 <0>        -0.1151
     20 C19        -1.4026   -2.5492   -0.8656 C.2       1 <0>         0.5272
     21 O1         -1.5173   -3.7418   -0.6769 O.2       1 <0>        -0.4825
     22 C20        -1.4583   -1.9994   -2.2677 C.3       1 <0>         0.0537
     23 H1         -1.4153   -0.9107   -2.2372 H         1 <0>         0.1017
     24 C21        -0.2763   -2.5411   -3.0830 C.3       1 <0>         0.0958
     25 H2         -0.3540   -3.6250   -3.1673 H         1 <0>         0.1369
     26 C22        -0.3259   -1.9094   -4.4781 C.3       1 <0>         0.0882
     27 H3         -0.0289   -0.8626   -4.4138 H         1 <0>         0.1438
     28 C23        -1.7266   -2.0010   -5.0201 C.2       1 <0>        -0.3731
     29 C24        -2.7736   -2.2344   -4.2403 C.2       1 <0>         0.1414
     30 O2         -2.6711   -2.4163   -2.9010 O.3       1 <0>        -0.2584
     31 C25        -4.1078   -2.2985   -4.8571 C.2       1 <0>         0.5226
     32 O3         -4.2324   -2.1380   -6.0637 O.co2     1 <0>        -0.6484
     33 O4         -5.0928   -2.5123   -4.1634 O.co2     1 <0>        -0.6337
     34 N2          0.5933   -2.6252   -5.3728 N.4       1 <0>        -0.6264
     35 N3          0.9827   -2.1860   -2.4234 N.am      1 <0>        -0.7460
     36 C26         1.5727   -3.0588   -1.5829 C.2       1 <0>         0.5058
     37 O5          1.1145   -4.1734   -1.4463 O.2       1 <0>        -0.4952
     38 C27         2.8019   -2.6498   -0.8128 C.3       1 <0>        -0.1720
     39 H4          1.7939    1.6805   -0.4184 H         1 <0>         0.0602
     40 H5          0.2304    1.8824   -1.2447 H         1 <0>         0.0573
     41 H6          0.3172    1.9747    0.5308 H         1 <0>         0.0616
     42 H7          0.8067   -0.4967   -1.1903 H         1 <0>         0.0609
     43 H8          1.0446   -0.4294    0.5724 H         1 <0>         0.0712
     44 H9         -1.3620    0.2798    0.8095 H         1 <0>         0.0906
     45 H10        -1.5648    0.0254   -0.9405 H         1 <0>         0.0808
     46 H11        -0.8869   -3.2692    1.5463 H         1 <0>         0.0882
     47 H12        -0.6017   -1.6302    2.1792 H         1 <0>         0.0800
     48 H13        -3.0366   -1.1706    2.0860 H         1 <0>         0.0747
     49 H14        -3.3218   -2.8096    1.4531 H         1 <0>         0.0800
     50 H15        -3.0330   -4.7584    2.8755 H         1 <0>         0.1235
     51 H16        -3.0686   -5.6399    5.1744 H         1 <0>         0.1211
     52 H17        -2.4033   -1.7099    6.6917 H         1 <0>         0.1202
     53 H18        -2.3593   -0.8297    4.3924 H         1 <0>         0.1200
     54 H19        -3.1344   -3.5007    8.1586 H         1 <0>         0.0825
     55 H20        -3.4126   -5.1408    7.5254 H         1 <0>         0.0829
     56 H21        -1.5548   -6.6647    7.1640 H         1 <0>         0.1206
     57 H22         0.7256   -7.3096    7.8329 H         1 <0>         0.1215
     58 H23         2.1957   -5.6699    8.9344 H         1 <0>         0.1205
     59 H24         1.3858   -3.3851    9.3663 H         1 <0>         0.1211
     60 H25        -0.8917   -2.7377    8.6899 H         1 <0>         0.1200
     61 H26        -1.8847   -1.8719   -6.0806 H         1 <0>         0.1658
     62 H27         0.3183   -3.5941   -5.4324 H         1 <0>         0.4373
     63 H28         0.5606   -2.2092   -6.2915 H         1 <0>         0.4399
     64 H29         1.3917   -1.3226   -2.5917 H         1 <0>         0.4060
     65 H30         3.0112   -1.5959   -0.9957 H         1 <0>         0.0788
     66 H31         2.6322   -2.8070    0.2524 H         1 <0>         0.1015
     67 H32         3.6511   -3.2507   -1.1381 H         1 <0>         0.1003
     68 H33         1.5325   -2.5639   -5.0091 H         1 <0>         0.4263
@<TRIPOS>BOND
     1    1    2 1
     2    1   39 1
     3    1   40 1
     4    1   41 1
     5    2    3 1
     6    2   42 1
     7    2   43 1
     8    3    4 1
     9    3   44 1
    10    3   45 1
    11    4    5 1
    12    4   20 am
    13    5    6 1
    14    5   46 1
    15    5   47 1
    16    6    7 1
    17    6   48 1
    18    6   49 1
    19    7   12 ar
    20    7    8 ar
    21    8    9 ar
    22    8   50 1
    23    9   10 ar
    24    9   51 1
    25   10   11 ar
    26   10   13 1
    27   11   12 ar
    28   11   52 1
    29   12   53 1
    30   13   14 1
    31   13   54 1
    32   13   55 1
    33   14   19 ar
    34   14   15 ar
    35   15   16 ar
    36   15   56 1
    37   16   17 ar
    38   16   57 1
    39   17   18 ar
    40   17   58 1
    41   18   19 ar
    42   18   59 1
    43   19   60 1
    44   20   21 2
    45   20   22 1
    46   22   23 1
    47   22   30 1
    48   22   24 1
    49   24   25 1
    50   24   26 1
    51   24   35 1
    52   26   27 1
    53   26   28 1
    54   26   34 1
    55   28   29 2
    56   28   61 1
    57   29   30 1
    58   29   31 1
    59   31   32 2
    60   31   33 1
    61   34   62 1
    62   34   63 1
    63   34   68 1
    64   35   36 am
    65   35   64 1
    66   36   37 2
    67   36   38 1
    68   38   65 1
    69   38   66 1
    70   38   67 1
@<TRIPOS>MOLECULE
CHEMBL167936__1
   67    69     0     0     0
SMALL
USER_CHARGES

@<TRIPOS>ATOM
      1 C1          0.1574    1.9033   -0.8750 C.3       1 <0>        -0.1325
      2 C2         -0.0208    0.3846   -0.8210 C.3       1 <0>        -0.1322
      3 C3          0.8740   -0.2716   -1.8744 C.3       1 <0>         0.1080
      4 N1          0.6114   -1.7124   -1.9091 N.am      1 <0>        -0.5935
      5 C4         -0.4690   -2.2402   -2.7460 C.3       1 <0>         0.1212
      6 C5          0.0765   -2.5654   -4.1379 C.3       1 <0>        -0.0942
      7 C6         -1.0349   -3.1083   -4.9988 C.ar      1 <0>        -0.0764
      8 C7         -1.2863   -4.4673   -5.0272 C.ar      1 <0>        -0.1094
      9 C8         -2.3058   -4.9652   -5.8168 C.ar      1 <0>        -0.1119
     10 C9         -3.0742   -4.1042   -6.5778 C.ar      1 <0>        -0.0831
     11 C10        -2.8234   -2.7451   -6.5487 C.ar      1 <0>        -0.1118
     12 C11        -1.8067   -2.2467   -5.7558 C.ar      1 <0>        -0.1119
     13 C12        -4.1849   -4.6472   -7.4394 C.3       1 <0>        -0.0412
     14 C13        -5.4649   -4.6839   -6.6448 C.ar      1 <0>        -0.0747
     15 C14        -5.7903   -5.8087   -5.9101 C.ar      1 <0>        -0.1146
     16 C15        -6.9643   -5.8424   -5.1812 C.ar      1 <0>        -0.1182
     17 C16        -7.8128   -4.7511   -5.1866 C.ar      1 <0>        -0.1249
     18 C17        -7.4871   -3.6260   -5.9207 C.ar      1 <0>        -0.1181
     19 C18        -6.3109   -3.5907   -6.6461 C.ar      1 <0>        -0.1146
     20 C19         1.3638   -2.5525   -1.1711 C.2       1 <0>         0.5420
     21 O1          1.1077   -3.7378   -1.1517 O.2       1 <0>        -0.5398
     22 C20         2.5234   -2.0190   -0.3700 C.3       1 <0>         0.0525
     23 H1          2.7836   -2.7276    0.4163 H         1 <0>         0.0995
     24 C21         3.7317   -1.8017   -1.2909 C.3       1 <0>         0.1242
     25 H2          3.4925   -1.0458   -2.0389 H         1 <0>         0.1157
     26 C22         4.9092   -1.3257   -0.4335 C.3       1 <0>         0.1305
     27 H3          5.2880   -2.1590    0.1583 H         1 <0>         0.0371
     28 C23         4.4483   -0.2267    0.4850 C.2       1 <0>        -0.2510
     29 C24         3.1658   -0.0160    0.7490 C.2       1 <0>         0.0344
     30 O2          2.1690   -0.7616    0.2124 O.3       1 <0>        -0.2718
     31 C25         2.8084    1.0770    1.6667 C.2       1 <0>         0.5363
     32 O3          3.6860    1.7673    2.1672 O.co2     1 <0>        -0.6695
     33 O4          1.6335    1.2957    1.9295 O.co2     1 <0>        -0.6581
     34 N2          5.9771   -0.8193   -1.3060 N.3       1 <0>        -0.8264
     35 N3          4.0798   -3.0605   -1.9545 N.am      1 <0>        -0.7256
     36 C26         4.6454   -3.0436   -3.1777 C.2       1 <0>         0.5059
     37 O5          4.9499   -1.9875   -3.6904 O.2       1 <0>        -0.5250
     38 C27         4.8994   -4.3369   -3.9084 C.3       1 <0>        -0.1711
     39 H4          1.1790    2.1595   -0.5945 H         1 <0>         0.0619
     40 H5         -0.0411    2.2566   -1.8869 H         1 <0>         0.0351
     41 H6         -0.5389    2.3757   -0.1821 H         1 <0>         0.0541
     42 H7          0.2565    0.0213    0.1686 H         1 <0>         0.1003
     43 H8         -1.0623    0.1336   -1.0215 H         1 <0>         0.0450
     44 H9          0.6607    0.1602   -2.8522 H         1 <0>         0.0649
     45 H10         1.9200   -0.0989   -1.6213 H         1 <0>         0.0939
     46 H11        -0.8705   -3.1463   -2.2923 H         1 <0>         0.0847
     47 H12        -1.2600   -1.4951   -2.8307 H         1 <0>         0.0796
     48 H13         0.4780   -1.6593   -4.5916 H         1 <0>         0.0741
     49 H14         0.8675   -3.3105   -4.0532 H         1 <0>         0.0735
     50 H15        -0.6860   -5.1400   -4.4327 H         1 <0>         0.1223
     51 H16        -2.5017   -6.0271   -5.8395 H         1 <0>         0.1187
     52 H17        -3.4235   -2.0724   -7.1435 H         1 <0>         0.1191
     53 H18        -1.6131   -1.1845   -5.7302 H         1 <0>         0.1220
     54 H19        -4.3163   -4.0050   -8.3103 H         1 <0>         0.0809
     55 H20        -3.9313   -5.6555   -7.7665 H         1 <0>         0.0808
     56 H21        -5.1273   -6.6613   -5.9058 H         1 <0>         0.1200
     57 H22        -7.2189   -6.7215   -4.6077 H         1 <0>         0.1208
     58 H23        -8.7305   -4.7778   -4.6177 H         1 <0>         0.1201
     59 H24        -8.1501   -2.7735   -5.9252 H         1 <0>         0.1210
     60 H25        -6.0545   -2.7102   -7.2166 H         1 <0>         0.1202
     61 H26         5.1872    0.4123    0.9454 H         1 <0>         0.1368
     62 H27         6.7655   -0.4991   -0.7639 H         1 <0>         0.3402
     63 H28         6.2591   -1.5191   -1.9759 H         1 <0>         0.3398
     64 H29         3.9032   -3.9063   -1.5135 H         1 <0>         0.4028
     65 H30         4.0672   -4.5434   -4.5815 H         1 <0>         0.0928
     66 H31         5.8208   -4.2537   -4.4847 H         1 <0>         0.0923
     67 H32         4.9937   -5.1490   -3.1876 H         1 <0>         0.0767
@<TRIPOS>BOND
     1    1    2 1
     2    1   39 1
     3    1   40 1
     4    1   41 1
     5    2    3 1
     6    2   42 1
     7    2   43 1
     8    3    4 1
     9    3   44 1
    10    3   45 1
    11    4    5 1
    12    4   20 am
    13    5    6 1
    14    5   46 1
    15    5   47 1
    16    6    7 1
    17    6   48 1
    18    6   49 1
    19    7   12 ar
    20    7    8 ar
    21    8    9 ar
    22    8   50 1
    23    9   10 ar
    24    9   51 1
    25   10   11 ar
    26   10   13 1
    27   11   12 ar
    28   11   52 1
    29   12   53 1
    30   13   14 1
    31   13   54 1
    32   13   55 1
    33   14   19 ar
    34   14   15 ar
    35   15   16 ar
    36   15   56 1
    37   16   17 ar
    38   16   57 1
    39   17   18 ar
    40   17   58 1
    41   18   19 ar
    42   18   59 1
    43   19   60 1
    44   20   21 2
    45   20   22 1
    46   22   23 1
    47   22   30 1
    48   22   24 1
    49   24   25 1
    50   24   26 1
    51   24   35 1
    52   26   27 1
    53   26   28 1
    54   26   34 1
    55   28   29 2
    56   28   61 1
    57   29   30 1
    58   29   31 1
    59   31   32 2
    60   31   33 1
    61   34   62 1
    62   34   63 1
    63   35   36 am
    64   35   64 1
    65   36   37 2
    66   36   38 1
    67   38   65 1
    68   38   66 1
    69   38   67 1
@<TRIPOS>MOLECULE
CHEMBL113191
   49    50     0     0     0
SMALL
USER_CHARGES

@<TRIPOS>ATOM
      1 C1          0.1626    1.4849   -0.1176 C.3       1 <0>        -0.1752
      2 C2          0.0974   -0.0198   -0.0636 C.2       1 <0>         0.5034
      3 O1          0.0651   -0.5873    1.0078 O.2       1 <0>        -0.4954
      4 N1          0.0749   -0.7348   -1.2058 N.am      1 <0>        -0.7528
      5 C3          0.0115   -2.1975   -1.1533 C.3       1 <0>         0.1302
      6 H1         -0.5975   -2.5073   -0.3040 H         1 <0>         0.1206
      7 C4          1.4270   -2.7696   -1.0082 C.3       1 <0>         0.0925
      8 H2          1.9905   -2.5890   -1.9236 H         1 <0>         0.0438
      9 C5          1.3193   -4.2755   -0.7595 C.3       1 <0>        -0.0842
     10 C6          0.4127   -4.9037   -1.7776 C.2       1 <0>        -0.0645
     11 C7         -0.4366   -4.2230   -2.5212 C.2       1 <0>        -0.2429
     12 C8         -0.6029   -2.7322   -2.4485 C.3       1 <0>         0.0729
     13 H3         -0.1032   -2.2733   -3.3018 H         1 <0>         0.1362
     14 N2         -2.0321   -2.3947   -2.4852 N.4       1 <0>        -0.3767
     15 C9         -2.7334   -3.1169   -1.4155 C.3       1 <0>        -0.0594
     16 C10        -2.5933   -2.7813   -3.7866 C.3       1 <0>        -0.0099
     17 C11        -4.0396   -2.2918   -3.8841 C.3       1 <0>        -0.0980
     18 C12        -4.6153   -2.6885   -5.2191 C.ar      1 <0>        -0.1019
     19 C13        -4.4932   -1.8404   -6.3039 C.ar      1 <0>        -0.1114
     20 C14        -5.0212   -2.2043   -7.5285 C.ar      1 <0>        -0.1172
     21 C15        -5.6710   -3.4163   -7.6684 C.ar      1 <0>        -0.1082
     22 C16        -5.7923   -4.2648   -6.5838 C.ar      1 <0>        -0.1133
     23 C17        -5.2605   -3.9028   -5.3603 C.ar      1 <0>        -0.1061
     24 C18         0.4758   -6.3585   -1.9555 C.2       1 <0>         0.5024
     25 O2         -0.2481   -6.9066   -2.7760 O.co2     1 <0>        -0.6761
     26 O3          1.2522   -7.0241   -1.2833 O.co2     1 <0>        -0.6633
     27 N3          2.1058   -2.1257    0.1243 N.3       1 <0>        -0.8272
     28 H4          1.2050    1.8034   -0.1231 H         1 <0>         0.0979
     29 H5         -0.3300    1.8376   -1.0238 H         1 <0>         0.0789
     30 H6         -0.3402    1.9019    0.7550 H         1 <0>         0.0985
     31 H7          0.1007   -0.2809   -2.0627 H         1 <0>         0.3988
     32 H8          2.3096   -4.7252   -0.8311 H         1 <0>         0.0966
     33 H9          0.9171   -4.4490    0.2385 H         1 <0>         0.0993
     34 H10        -1.0513   -4.7691   -3.2215 H         1 <0>         0.1447
     35 H11        -2.3764   -2.7676   -0.4466 H         1 <0>         0.1209
     36 H12        -3.8049   -2.9339   -1.4954 H         1 <0>         0.1227
     37 H13        -2.5392   -4.1853   -1.5106 H         1 <0>         0.1359
     38 H14        -2.0029   -2.3316   -4.5849 H         1 <0>         0.1290
     39 H15        -2.5697   -3.8667   -3.8844 H         1 <0>         0.1408
     40 H16        -4.6299   -2.7415   -3.0857 H         1 <0>         0.0955
     41 H17        -4.0632   -1.2065   -3.7862 H         1 <0>         0.0907
     42 H18        -3.9855   -0.8935   -6.1946 H         1 <0>         0.1223
     43 H19        -4.9265   -1.5414   -8.3759 H         1 <0>         0.1263
     44 H20        -6.0842   -3.7003   -8.6250 H         1 <0>         0.1268
     45 H21        -6.3003   -5.2116   -6.6930 H         1 <0>         0.1286
     46 H22        -5.3520   -4.5673   -4.5138 H         1 <0>         0.1267
     47 H23         3.0408   -2.4876    0.2386 H         1 <0>         0.3506
     48 H24         2.1171   -1.1226    0.0162 H         1 <0>         0.3363
     49 H25        -2.1466   -1.4012   -2.3514 H         1 <0>         0.4139
@<TRIPOS>BOND
     1    1    2 1
     2    1   28 1
     3    1   29 1
     4    1   30 1
     5    2    3 2
     6    2    4 am
     7    4    5 1
     8    4   31 1
     9    5    6 1
    10    5   12 1
    11    5    7 1
    12    7    8 1
    13    7    9 1
    14    7   27 1
    15    9   10 1
    16    9   32 1
    17    9   33 1
    18   10   11 2
    19   10   24 1
    20   11   12 1
    21   11   34 1
    22   12   13 1
    23   12   14 1
    24   14   15 1
    25   14   16 1
    26   14   49 1
    27   15   35 1
    28   15   36 1
    29   15   37 1
    30   16   17 1
    31   16   38 1
    32   16   39 1
    33   17   18 1
    34   17   40 1
    35   17   41 1
    36   18   23 ar
    37   18   19 ar
    38   19   20 ar
    39   19   42 1
    40   20   21 ar
    41   20   43 1
    42   21   22 ar
    43   21   44 1
    44   22   23 ar
    45   22   45 1
    46   23   46 1
    47   24   25 2
    48   24   26 1
    49   27   47 1
    50   27   48 1
@<TRIPOS>MOLECULE
CHEMBL113191__1
   49    50     0     0     0
SMALL
USER_CHARGES

@<TRIPOS>ATOM
      1 C1         -0.0184    1.5028    0.0103 C.3       1 <0>        -0.1791
      2 C2          0.0021   -0.0041    0.0020 C.2       1 <0>         0.5062
      3 O1          0.0203   -0.6160    1.0489 O.2       1 <0>        -0.5573
      4 N1          0.0001   -0.6716   -1.1688 N.am      1 <0>        -0.7209
      5 C3          0.0199   -2.1365   -1.1769 C.3       1 <0>         0.1285
      6 H1         -0.5559   -2.5151   -0.3324 H         1 <0>         0.1225
      7 C4          1.4676   -2.6326   -1.0772 C.3       1 <0>         0.0141
      8 H2          2.0042   -2.3828   -1.9925 H         1 <0>         0.1451
      9 C5          1.4491   -4.1511   -0.8905 C.3       1 <0>        -0.0831
     10 C6          0.5618   -4.7875   -1.9203 C.2       1 <0>        -0.1490
     11 C7         -0.3372   -4.1263   -2.6219 C.2       1 <0>        -0.1792
     12 C8         -0.5857   -2.6515   -2.4841 C.3       1 <0>         0.1167
     13 H3         -0.1275   -2.1303   -3.3247 H         1 <0>         0.1022
     14 N2         -2.0321   -2.3947   -2.4852 N.3       1 <0>        -0.5235
     15 C9         -2.6919   -3.0945   -1.3749 C.3       1 <0>         0.0078
     16 C10        -2.6320   -2.7675   -3.7733 C.3       1 <0>         0.0559
     17 C11        -4.0746   -2.2609   -3.8297 C.3       1 <0>        -0.0734
     18 C12        -4.6900   -2.6434   -5.1510 C.ar      1 <0>        -0.0850
     19 C13        -4.5869   -1.7907   -6.2342 C.ar      1 <0>        -0.1163
     20 C14        -5.1514   -2.1415   -7.4462 C.ar      1 <0>        -0.1197
     21 C15        -5.8187   -3.3453   -7.5753 C.ar      1 <0>        -0.1226
     22 C16        -5.9210   -4.1984   -6.4924 C.ar      1 <0>        -0.1162
     23 C17        -5.3528   -3.8495   -5.2815 C.ar      1 <0>        -0.1139
     24 C18         0.7034   -6.2279   -2.1601 C.2       1 <0>         0.5090
     25 O2         -0.0025   -6.7820   -2.9921 O.co2     1 <0>        -0.6728
     26 O3          1.5276   -6.8752   -1.5283 O.co2     1 <0>        -0.6848
     27 N3          2.1287   -1.9983    0.0711 N.4       1 <0>        -0.6276
     28 H4          1.0042    1.8801    0.0026 H         1 <0>         0.0992
     29 H5         -0.5455    1.8639   -0.8728 H         1 <0>         0.0905
     30 H6         -0.5286    1.8543    0.9071 H         1 <0>         0.1029
     31 H7         -0.0145   -0.1822   -2.0061 H         1 <0>         0.4168
     32 H8          2.4618   -4.5405   -0.9957 H         1 <0>         0.1092
     33 H9          1.0746   -4.3882    0.1054 H         1 <0>         0.0941
     34 H10        -0.9322   -4.6772   -3.3352 H         1 <0>         0.1369
     35 H11        -2.2761   -2.7481   -0.4288 H         1 <0>         0.0638
     36 H12        -3.7617   -2.8872   -1.3993 H         1 <0>         0.0763
     37 H13        -2.5274   -4.1676   -1.4729 H         1 <0>         0.0450
     38 H14        -2.0578   -2.3201   -4.5846 H         1 <0>         0.0781
     39 H15        -2.6236   -3.8525   -3.8775 H         1 <0>         0.0522
     40 H16        -4.6488   -2.7083   -3.0184 H         1 <0>         0.0731
     41 H17        -4.0830   -1.1759   -3.7254 H         1 <0>         0.0784
     42 H18        -4.0656   -0.8502   -6.1333 H         1 <0>         0.1199
     43 H19        -5.0715   -1.4750   -8.2923 H         1 <0>         0.1211
     44 H20        -6.2604   -3.6191   -8.5221 H         1 <0>         0.1213
     45 H21        -6.4426   -5.1387   -6.5932 H         1 <0>         0.1226
     46 H22        -5.4295   -4.5176   -4.4365 H         1 <0>         0.1211
     47 H23         1.6340   -2.2363    0.9176 H         1 <0>         0.4386
     48 H24         3.0808   -2.3263    0.1344 H         1 <0>         0.4338
     49 H25         2.1255   -0.9966   -0.0501 H         1 <0>         0.4212
@<TRIPOS>BOND
     1    1    2 1
     2    1   28 1
     3    1   29 1
     4    1   30 1
     5    2    3 2
     6    2    4 am
     7    4    5 1
     8    4   31 1
     9    5    6 1
    10    5   12 1
    11    5    7 1
    12    7    8 1
    13    7    9 1
    14    7   27 1
    15    9   10 1
    16    9   32 1
    17    9   33 1
    18   10   11 2
    19   10   24 1
    20   11   12 1
    21   11   34 1
    22   12   13 1
    23   12   14 1
    24   14   15 1
    25   14   16 1
    26   15   35 1
    27   15   36 1
    28   15   37 1
    29   16   17 1
    30   16   38 1
    31   16   39 1
    32   17   18 1
    33   17   40 1
    34   17   41 1
    35   18   23 ar
    36   18   19 ar
    37   19   20 ar
    38   19   42 1
    39   20   21 ar
    40   20   43 1
    41   21   22 ar
    42   21   44 1
    43   22   23 ar
    44   22   45 1
    45   23   46 1
    46   24   25 2
    47   24   26 1
    48   27   47 1
    49   27   48 1
    50   27   49 1
@<TRIPOS>MOLECULE
CHEMBL307189
   50    51     0     0     0
SMALL
USER_CHARGES

@<TRIPOS>ATOM
      1 C1         -0.0187    1.5258    0.0104 C.3       1 <0>        -0.1618
      2 C2          0.0021   -0.0041    0.0020 C.3       1 <0>        -0.1334
      3 C3         -1.4333   -0.5336    0.0129 C.3       1 <0>         0.1476
      4 C4         -1.4157   -2.0577   -0.1212 C.3       1 <0>        -0.1284
      5 C5         -2.8505   -2.5762   -0.2357 C.3       1 <0>        -0.1553
      6 N1         -2.0815   -0.1618    1.2729 N.pl3     1 <0>        -0.7411
      7 C6         -2.6860    1.0933    1.4050 C.ar      1 <0>         0.2103
      8 C7         -2.6768    1.9803    0.3450 C.ar      1 <0>        -0.1500
      9 C8         -3.2828    3.2339    0.4812 C.ar      1 <0>        -0.0816
     10 C9         -3.8952    3.5841    1.6892 C.ar      1 <0>        -0.1299
     11 C10        -3.9009    2.6966    2.7420 C.ar      1 <0>        -0.0857
     12 C11        -3.3044    1.4485    2.6068 C.ar      1 <0>         0.0390
     13 N2         -3.3181    0.5507    3.6749 N.am      1 <0>        -0.5463
     14 C12        -2.3707    0.4896    4.6265 C.2       1 <0>         0.5158
     15 O1         -1.3870    1.1975    4.6738 O.2       1 <0>        -0.5115
     16 C13        -2.7102   -0.5902    5.6301 C.3       1 <0>        -0.1592
     17 C14        -4.2062   -0.8876    5.3757 C.3       1 <0>        -0.1078
     18 C15        -4.3720   -0.4440    3.9071 C.3       1 <0>         0.1635
     19 C16        -4.1857   -1.6408    2.9723 C.3       1 <0>         0.0753
     20 O2         -5.2193   -2.5979    3.2121 O.3       1 <0>        -0.5402
     21 C17        -5.7502    0.1855    3.6948 C.3       1 <0>         0.0842
     22 O3         -6.7628   -0.7962    3.9249 O.3       1 <0>        -0.5446
     23 C18        -3.2756    4.1829   -0.6445 C.2       1 <0>         0.5190
     24 O4         -2.7393    3.8756   -1.7002 O.co2     1 <0>        -0.6851
     25 O5         -3.8058    5.2788   -0.5241 O.co2     1 <0>        -0.6850
     26 H1          1.0039    1.9031    0.0027 H         1 <0>         0.0444
     27 H2         -0.5459    1.8868   -0.8726 H         1 <0>         0.0704
     28 H3         -0.5289    1.8773    0.9072 H         1 <0>         0.0658
     29 H4          0.5123   -0.3556   -0.8948 H         1 <0>         0.0640
     30 H5          0.5293   -0.3651    0.8851 H         1 <0>         0.0568
     31 H6         -1.9862   -0.1019   -0.8214 H         1 <0>         0.0847
     32 H7         -0.8559   -2.3374   -1.0137 H         1 <0>         0.0761
     33 H8         -0.9406   -2.4942    0.7573 H         1 <0>         0.0608
     34 H9         -3.4103   -2.2964    0.6568 H         1 <0>         0.0552
     35 H10        -3.3256   -2.1397   -1.1142 H         1 <0>         0.0580
     36 H11        -2.8380   -3.6619   -0.3312 H         1 <0>         0.0521
     37 H12        -2.0916   -0.7855    2.0157 H         1 <0>         0.3879
     38 H13        -2.2027    1.7065   -0.5860 H         1 <0>         0.1407
     39 H14        -4.3635    4.5514    1.7962 H         1 <0>         0.1276
     40 H15        -4.3737    2.9695    3.6739 H         1 <0>         0.1126
     41 H16        -2.1083   -1.4810    5.4503 H         1 <0>         0.1017
     42 H17        -2.5611   -0.2266    6.6468 H         1 <0>         0.1034
     43 H18        -4.4177   -1.9506    5.4911 H         1 <0>         0.0993
     44 H19        -4.8396   -0.2917    6.0328 H         1 <0>         0.0827
     45 H20        -4.2354   -1.3041    1.9368 H         1 <0>         0.0603
     46 H21        -3.2149   -2.0999    3.1589 H         1 <0>         0.0397
     47 H22        -5.1639   -3.3851    2.6533 H         1 <0>         0.3716
     48 H23        -5.8824    1.0139    4.3908 H         1 <0>         0.0486
     49 H24        -5.8275    0.5544    2.6721 H         1 <0>         0.0539
     50 H25        -7.6642   -0.4664    3.8079 H         1 <0>         0.3739
@<TRIPOS>BOND
     1    1    2 1
     2    1   26 1
     3    1   27 1
     4    1   28 1
     5    2    3 1
     6    2   29 1
     7    2   30 1
     8    3    4 1
     9    3    6 1
    10    3   31 1
    11    4    5 1
    12    4   32 1
    13    4   33 1
    14    5   34 1
    15    5   35 1
    16    5   36 1
    17    6    7 1
    18    6   37 1
    19    7   12 ar
    20    7    8 ar
    21    8    9 ar
    22    8   38 1
    23    9   10 ar
    24    9   23 1
    25   10   11 ar
    26   10   39 1
    27   11   12 ar
    28   11   40 1
    29   12   13 1
    30   13   18 1
    31   13   14 am
    32   14   15 2
    33   14   16 1
    34   16   17 1
    35   16   41 1
    36   16   42 1
    37   17   18 1
    38   17   43 1
    39   17   44 1
    40   18   19 1
    41   18   21 1
    42   19   20 1
    43   19   45 1
    44   19   46 1
    45   20   47 1
    46   21   22 1
    47   21   48 1
    48   21   49 1
    49   22   50 1
    50   23   24 2
    51   23   25 1
@<TRIPOS>MOLECULE
CHEMBL22943
   52    53     0     0     0
SMALL
USER_CHARGES

@<TRIPOS>ATOM
      1 C1         -1.3964    1.8139    3.4674 C.3       1 <0>        -0.1557
      2 C2         -1.5637    0.2982    3.5916 C.3       1 <0>        -0.1293
      3 C3         -0.8968   -0.3881    2.3978 C.3       1 <0>        -0.1132
      4 C4         -1.0641   -1.9038    2.5221 C.3       1 <0>        -0.1038
      5 C5         -0.2945   -2.4052    3.7474 C.3       1 <0>        -0.1368
      6 C6         -0.4002   -3.9300    3.8205 C.3       1 <0>        -0.0146
      7 N1          0.1718   -4.5225    2.6055 N.4       1 <0>        -0.3722
      8 C7         -0.6056   -4.1030    1.4333 C.3       1 <0>        -0.0111
      9 C8         -0.5078   -2.5849    1.2683 C.3       1 <0>        -0.1366
     10 C9          0.1389   -5.9871    2.7145 C.3       1 <0>         0.0723
     11 H1          0.4664   -6.4270    1.7725 H         1 <0>         0.1366
     12 C10        -1.2634   -6.4327    3.0109 C.2       1 <0>        -0.2421
     13 C11        -1.5646   -7.3674    3.8902 C.2       1 <0>        -0.0660
     14 C12        -0.5440   -8.0977    4.7137 C.3       1 <0>        -0.0845
     15 C13         0.8477   -7.9254    4.1016 C.3       1 <0>         0.0922
     16 H2          0.9066   -8.4788    3.1644 H         1 <0>         0.0442
     17 C14         1.0786   -6.4335    3.8365 C.3       1 <0>         0.1308
     18 H3          0.8668   -5.8624    4.7404 H         1 <0>         0.1200
     19 N2          2.4692   -6.2185    3.4286 N.am      1 <0>        -0.7523
     20 C15         3.4266   -6.0486    4.3618 C.2       1 <0>         0.5040
     21 O1          3.1370   -6.0736    5.5392 O.2       1 <0>        -0.4959
     22 C16         4.8570   -5.8275    3.9421 C.3       1 <0>        -0.1760
     23 N3          1.8634   -8.4282    5.0362 N.3       1 <0>        -0.8274
     24 C17        -2.9782   -7.7135    4.0748 C.2       1 <0>         0.5028
     25 O2         -3.8391   -7.1392    3.4215 O.co2     1 <0>        -0.6768
     26 O3         -3.2966   -8.5763    4.8821 O.co2     1 <0>        -0.6636
     27 H4         -1.8633    2.1565    2.5439 H         1 <0>         0.0552
     28 H5         -1.8715    2.3028    4.3179 H         1 <0>         0.0572
     29 H6         -0.3352    2.0623    3.4518 H         1 <0>         0.0535
     30 H7         -1.0968   -0.0444    4.5150 H         1 <0>         0.0636
     31 H8         -2.6249    0.0498    3.6072 H         1 <0>         0.0661
     32 H9         -1.3637   -0.0455    1.4744 H         1 <0>         0.0714
     33 H10         0.1644   -0.1397    2.3822 H         1 <0>         0.0656
     34 H11        -2.1213   -2.1462    2.6298 H         1 <0>         0.0931
     35 H12         0.7531   -2.1166    3.6625 H         1 <0>         0.0819
     36 H13        -0.7214   -1.9671    4.6496 H         1 <0>         0.1113
     37 H14         0.1465   -4.2903    4.6920 H         1 <0>         0.1264
     38 H15        -1.4481   -4.2175    3.9058 H         1 <0>         0.1402
     39 H16        -0.2105   -4.5910    0.5423 H         1 <0>         0.1268
     40 H17        -1.6491   -4.3868    1.5694 H         1 <0>         0.1379
     41 H18        -1.0871   -2.2752    0.3985 H         1 <0>         0.1099
     42 H19         0.5355   -2.3000    1.1319 H         1 <0>         0.0827
     43 H20        -2.0720   -5.9606    2.4726 H         1 <0>         0.1443
     44 H21        -0.5449   -7.6981    5.7277 H         1 <0>         0.0989
     45 H22        -0.7963   -9.1577    4.7449 H         1 <0>         0.0964
     46 H23         2.7008   -6.1985    2.4868 H         1 <0>         0.3987
     47 H24         5.0397   -4.7596    3.8226 H         1 <0>         0.0952
     48 H25         5.5253   -6.2273    4.7048 H         1 <0>         0.0997
     49 H26         5.0407   -6.3357    2.9955 H         1 <0>         0.0807
     50 H27         1.7183   -9.4065    5.2360 H         1 <0>         0.3509
     51 H28         2.7937   -8.2659    4.6808 H         1 <0>         0.3365
     52 H29         1.1276   -4.2164    2.5011 H         1 <0>         0.4111
@<TRIPOS>BOND
     1    1    2 1
     2    1   27 1
     3    1   28 1
     4    1   29 1
     5    2    3 1
     6    2   30 1
     7    2   31 1
     8    3    4 1
     9    3   32 1
    10    3   33 1
    11    4    9 1
    12    4    5 1
    13    4   34 1
    14    5    6 1
    15    5   35 1
    16    5   36 1
    17    6    7 1
    18    6   37 1
    19    6   38 1
    20    7    8 1
    21    7   10 1
    22    7   52 1
    23    8    9 1
    24    8   39 1
    25    8   40 1
    26    9   41 1
    27    9   42 1
    28   10   11 1
    29   10   17 1
    30   10   12 1
    31   12   13 2
    32   12   43 1
    33   13   14 1
    34   13   24 1
    35   14   15 1
    36   14   44 1
    37   14   45 1
    38   15   16 1
    39   15   17 1
    40   15   23 1
    41   17   18 1
    42   17   19 1
    43   19   20 am
    44   19   46 1
    45   20   21 2
    46   20   22 1
    47   22   47 1
    48   22   48 1
    49   22   49 1
    50   23   50 1
    51   23   51 1
    52   24   25 2
    53   24   26 1
@<TRIPOS>MOLECULE
CHEMBL22943__1
   52    53     0     0     0
SMALL
USER_CHARGES

@<TRIPOS>ATOM
      1 C1         -2.1614    1.9255   -2.3978 C.3       1 <0>        -0.1534
      2 C2         -2.1605    0.4335   -2.7366 C.3       1 <0>        -0.1275
      3 C3         -1.5294   -0.3508   -1.5844 C.3       1 <0>        -0.1119
      4 C4         -1.5285   -1.8428   -1.9233 C.3       1 <0>        -0.0923
      5 C5         -2.9710   -2.3496   -2.0061 C.3       1 <0>        -0.1074
      6 C6         -2.9627   -3.8543   -2.2848 C.3       1 <0>         0.0478
      7 N1         -2.2420   -4.5486   -1.2101 N.3       1 <0>        -0.5198
      8 C7         -0.8414   -4.1125   -1.1422 C.3       1 <0>         0.0511
      9 C8         -0.7863   -2.6155   -0.8293 C.3       1 <0>        -0.1079
     10 C9         -2.3324   -6.0059   -1.3715 C.3       1 <0>         0.1160
     11 H1         -1.6591   -6.4902   -0.6644 H         1 <0>         0.1009
     12 C10        -1.9356   -6.3771   -2.7707 C.2       1 <0>        -0.1759
     13 C11        -2.5753   -7.2685   -3.5014 C.2       1 <0>        -0.1506
     14 C12        -3.7876   -8.0179   -3.0304 C.3       1 <0>        -0.0832
     15 C13        -3.9029   -7.9291   -1.5073 C.3       1 <0>         0.0139
     16 H2         -3.1079   -8.5143   -1.0452 H         1 <0>         0.1449
     17 C14        -3.7679   -6.4585   -1.0965 C.3       1 <0>         0.1327
     18 H3         -4.4613   -5.8497   -1.6766 H         1 <0>         0.1206
     19 N2         -4.0623   -6.3205    0.3320 N.am      1 <0>        -0.7204
     20 C15        -5.3355   -6.1647    0.7456 C.2       1 <0>         0.5063
     21 O1         -6.2375   -6.1387   -0.0647 O.2       1 <0>        -0.5568
     22 C16        -5.6384   -6.0227    2.2150 C.3       1 <0>        -0.1792
     23 N3         -5.2093   -8.4475   -1.0802 N.4       1 <0>        -0.6279
     24 C17        -2.0740   -7.5435   -4.8524 C.2       1 <0>         0.5094
     25 O2         -1.0882   -6.9517   -5.2714 O.co2     1 <0>        -0.6736
     26 O3         -2.6416   -8.3645   -5.5603 O.co2     1 <0>        -0.6850
     27 H4         -2.6110    2.4842   -3.2186 H         1 <0>         0.0533
     28 H5         -2.7372    2.0909   -1.4872 H         1 <0>         0.0521
     29 H6         -1.1365    2.2642   -2.2461 H         1 <0>         0.0531
     30 H7         -3.1854    0.0947   -2.8883 H         1 <0>         0.0622
     31 H8         -1.5846    0.2680   -3.6472 H         1 <0>         0.0614
     32 H9         -0.5045   -0.0120   -1.4328 H         1 <0>         0.0616
     33 H10        -2.1052   -0.1853   -0.6739 H         1 <0>         0.0605
     34 H11        -1.0311   -1.9986   -2.8806 H         1 <0>         0.0708
     35 H12        -3.4790   -2.1574   -1.0610 H         1 <0>         0.0663
     36 H13        -3.4925   -1.8331   -2.8119 H         1 <0>         0.0693
     37 H14        -3.9882   -4.2210   -2.3302 H         1 <0>         0.0676
     38 H15        -2.4667   -4.0446   -3.2366 H         1 <0>         0.0519
     39 H16        -0.3261   -4.6667   -0.3577 H         1 <0>         0.0752
     40 H17        -0.3553   -4.3016   -2.0993 H         1 <0>         0.0470
     41 H18         0.2530   -2.2890   -0.7944 H         1 <0>         0.0688
     42 H19        -1.2600   -2.4275    0.1342 H         1 <0>         0.0686
     43 H20        -1.0765   -5.8861   -3.2034 H         1 <0>         0.1354
     44 H21        -4.6788   -7.5863   -3.4860 H         1 <0>         0.0938
     45 H22        -3.7034   -9.0637   -3.3261 H         1 <0>         0.1088
     46 H23        -3.3409   -6.3413    0.9801 H         1 <0>         0.4158
     47 H24        -5.6119   -4.9687    2.4913 H         1 <0>         0.1055
     48 H25        -6.6287   -6.4280    2.4227 H         1 <0>         0.0996
     49 H26        -4.8936   -6.5689    2.7939 H         1 <0>         0.0866
     50 H27        -5.2992   -9.4106   -1.3674 H         1 <0>         0.4339
     51 H28        -5.2828   -8.3879   -0.0757 H         1 <0>         0.4216
     52 H29        -5.9433   -7.9002   -1.5042 H         1 <0>         0.4385
@<TRIPOS>BOND
     1    1    2 1
     2    1   27 1
     3    1   28 1
     4    1   29 1
     5    2    3 1
     6    2   30 1
     7    2   31 1
     8    3    4 1
     9    3   32 1
    10    3   33 1
    11    4    9 1
    12    4    5 1
    13    4   34 1
    14    5    6 1
    15    5   35 1
    16    5   36 1
    17    6    7 1
    18    6   37 1
    19    6   38 1
    20    7    8 1
    21    7   10 1
    22    8    9 1
    23    8   39 1
    24    8   40 1
    25    9   41 1
    26    9   42 1
    27   10   11 1
    28   10   17 1
    29   10   12 1
    30   12   13 2
    31   12   43 1
    32   13   14 1
    33   13   24 1
    34   14   15 1
    35   14   44 1
    36   14   45 1
    37   15   16 1
    38   15   17 1
    39   15   23 1
    40   17   18 1
    41   17   19 1
    42   19   20 am
    43   19   46 1
    44   20   21 2
    45   20   22 1
    46   22   47 1
    47   22   48 1
    48   22   49 1
    49   23   50 1
    50   23   51 1
    51   23   52 1
    52   24   25 2
    53   24   26 1
@<TRIPOS>MOLECULE
CHEMBL278852
   46    47     0     0     0
SMALL
USER_CHARGES

@<TRIPOS>ATOM
      1 C1          0.3758    1.2568    0.0577 C.3       1 <0>        -0.1781
      2 C2          0.2545   -0.2453    0.0480 C.2       1 <0>         0.5005
      3 O1          1.2526   -0.9343    0.0524 O.2       1 <0>        -0.4936
      4 N1         -0.9631   -0.8230    0.0342 N.am      1 <0>        -0.7522
      5 C3         -1.0809   -2.2833    0.0247 C.3       1 <0>         0.1308
      6 H1         -0.2771   -2.7193    0.6179 H         1 <0>         0.1227
      7 C4         -0.9944   -2.7977   -1.4174 C.3       1 <0>         0.0921
      8 H2         -1.8791   -2.4844   -1.9717 H         1 <0>         0.0439
      9 C5         -0.9227   -4.3258   -1.3848 C.3       1 <0>        -0.0844
     10 C6         -2.0123   -4.8755   -0.5111 C.2       1 <0>        -0.0634
     11 C7         -2.6774   -4.1559    0.3707 C.2       1 <0>        -0.2461
     12 C8         -2.4333   -2.6936    0.6111 C.3       1 <0>         0.0665
     13 H3         -3.2244   -2.1147    0.1345 H         1 <0>         0.1379
     14 N2         -2.4396   -2.4252    2.0553 N.4       1 <0>        -0.3543
     15 C9         -2.4423   -0.9643    2.2652 C.3       1 <0>        -0.0088
     16 C10        -3.0422   -0.6817    3.6197 C.3       1 <0>        -0.1480
     17 C11        -1.9521   -0.5129    4.6946 C.3       1 <0>        -0.1265
     18 C12        -0.8143   -1.5392    4.5219 C.3       1 <0>        -0.1377
     19 C13        -1.3277   -2.9120    4.1697 C.3       1 <0>        -0.1305
     20 C14        -1.3426   -3.0656    2.6345 C.3       1 <0>        -0.0450
     21 C15        -2.3574   -6.2949   -0.6466 C.2       1 <0>         0.5022
     22 O2         -3.2404   -6.7791    0.0487 O.co2     1 <0>        -0.6754
     23 O3         -1.7621   -6.9949   -1.4549 O.co2     1 <0>        -0.6636
     24 N3          0.2094   -2.2570   -2.0628 N.3       1 <0>        -0.8270
     25 H4          1.4293    1.5362    0.0683 H         1 <0>         0.0990
     26 H5         -0.0996    1.6655   -0.8340 H         1 <0>         0.0911
     27 H6         -0.1147    1.6551    0.9459 H         1 <0>         0.0872
     28 H7         -1.7613   -0.2720    0.0307 H         1 <0>         0.3982
     29 H8         -1.0397   -4.7147   -2.3963 H         1 <0>         0.0970
     30 H9          0.0460   -4.6337   -0.9912 H         1 <0>         0.0991
     31 H10        -3.4400   -4.6467    0.9571 H         1 <0>         0.1454
     32 H11        -1.4206   -0.5861    2.2297 H         1 <0>         0.1330
     33 H12        -3.0399   -0.4830    1.4910 H         1 <0>         0.1254
     34 H13        -3.6325    0.2329    3.5642 H         1 <0>         0.1046
     35 H14        -3.6943   -1.5088    3.9003 H         1 <0>         0.0832
     36 H15        -1.5372    0.4926    4.6249 H         1 <0>         0.0761
     37 H16        -2.4012   -0.6428    5.6793 H         1 <0>         0.0795
     38 H17        -0.1480   -1.1976    3.7297 H         1 <0>         0.0671
     39 H18        -0.2505   -1.6012    5.4526 H         1 <0>         0.0834
     40 H19        -0.6748   -3.6683    4.6055 H         1 <0>         0.1077
     41 H20        -2.3388   -3.0338    4.5582 H         1 <0>         0.0861
     42 H21        -1.3789   -4.1260    2.3847 H         1 <0>         0.1401
     43 H22        -0.4267   -2.6381    2.2266 H         1 <0>         0.1277
     44 H23         0.2868   -2.5831   -3.0146 H         1 <0>         0.3506
     45 H24         0.2185   -1.2488   -2.0242 H         1 <0>         0.3362
     46 H25        -3.2845   -2.8089    2.4514 H         1 <0>         0.4204
@<TRIPOS>BOND
     1    1    2 1
     2    1   25 1
     3    1   26 1
     4    1   27 1
     5    2    3 2
     6    2    4 am
     7    4    5 1
     8    4   28 1
     9    5    6 1
    10    5   12 1
    11    5    7 1
    12    7    8 1
    13    7    9 1
    14    7   24 1
    15    9   10 1
    16    9   29 1
    17    9   30 1
    18   10   11 2
    19   10   21 1
    20   11   12 1
    21   11   31 1
    22   12   13 1
    23   12   14 1
    24   14   20 1
    25   14   15 1
    26   14   46 1
    27   15   16 1
    28   15   32 1
    29   15   33 1
    30   16   17 1
    31   16   34 1
    32   16   35 1
    33   17   18 1
    34   17   36 1
    35   17   37 1
    36   18   19 1
    37   18   38 1
    38   18   39 1
    39   19   20 1
    40   19   40 1
    41   19   41 1
    42   20   42 1
    43   20   43 1
    44   21   22 2
    45   21   23 1
    46   24   44 1
    47   24   45 1
@<TRIPOS>MOLECULE
CHEMBL278852__1
   46    47     0     0     0
SMALL
USER_CHARGES

@<TRIPOS>ATOM
      1 C1         -0.0407    1.3778    0.2122 C.3       1 <0>        -0.1802
      2 C2         -0.0198   -0.1269    0.1315 C.2       1 <0>         0.5040
      3 O1         -0.0104   -0.7886    1.1479 O.2       1 <0>        -0.5504
      4 N1         -0.0117   -0.7373   -1.0701 N.am      1 <0>        -0.7342
      5 C3          0.0086   -2.2001   -1.1485 C.3       1 <0>         0.0822
      6 H1         -0.5743   -2.6188   -0.3281 H         1 <0>         0.1249
      7 C4          1.4555   -2.7007   -1.0604 C.3       1 <0>         0.0177
      8 H2          1.9998   -2.4072   -1.9580 H         1 <0>         0.1447
      9 C5          1.4358   -4.2264   -0.9471 C.3       1 <0>        -0.0819
     10 C6          0.5574   -4.8124   -2.0140 C.2       1 <0>        -0.1624
     11 C7         -0.3357   -4.1180   -2.6906 C.2       1 <0>        -0.1297
     12 C8         -0.5857   -2.6515   -2.4841 C.3       1 <0>         0.1289
     13 H3         -0.1205   -2.0906   -3.2947 H         1 <0>         0.1028
     14 N2         -2.0321   -2.3947   -2.4852 N.3       1 <0>        -0.5282
     15 C9         -2.3148   -0.9620   -2.7018 C.3       1 <0>         0.0639
     16 C10        -3.6456   -0.8490   -3.4024 C.3       1 <0>        -0.1224
     17 C11        -4.7938   -0.6201   -2.4047 C.3       1 <0>        -0.1182
     18 C12        -4.6374   -1.4841   -1.1373 C.3       1 <0>        -0.1192
     19 C13        -4.1803   -2.8873   -1.4451 C.3       1 <0>        -0.1182
     20 C14        -2.6398   -2.9468   -1.3540 C.3       1 <0>         0.0659
     21 C15         0.7015   -6.2395   -2.3217 C.2       1 <0>         0.5114
     22 O2          0.0028   -6.7529   -3.1853 O.co2     1 <0>        -0.6712
     23 O3          1.5204   -6.9167   -1.7147 O.co2     1 <0>        -0.6874
     24 N3          2.1066   -2.1225    0.1227 N.4       1 <0>        -0.6288
     25 H4          0.9818    1.7548    0.2313 H         1 <0>         0.1017
     26 H5         -0.5604    1.7810   -0.6570 H         1 <0>         0.0895
     27 H6         -0.5586    1.6858    1.1204 H         1 <0>         0.1042
     28 H7         -0.0192   -0.2081   -1.8830 H         1 <0>         0.4140
     29 H8          2.4494   -4.6105   -1.0623 H         1 <0>         0.1085
     30 H9          1.0528   -4.5111    0.0329 H         1 <0>         0.0920
     31 H10        -0.9244   -4.6338   -3.4347 H         1 <0>         0.1443
     32 H11        -2.3586   -0.4461   -1.7426 H         1 <0>         0.0445
     33 H12        -1.5337   -0.5221   -3.3219 H         1 <0>         0.0686
     34 H13        -3.6099   -0.0135   -4.1014 H         1 <0>         0.0643
     35 H14        -3.8346   -1.7678   -3.9575 H         1 <0>         0.0817
     36 H15        -4.8096    0.4312   -2.1173 H         1 <0>         0.0555
     37 H16        -5.7386   -0.8681   -2.8884 H         1 <0>         0.0629
     38 H17        -3.9087   -1.0130   -0.4776 H         1 <0>         0.0503
     39 H18        -5.5970   -1.5312   -0.6225 H         1 <0>         0.0601
     40 H19        -4.6151   -3.5790   -0.7236 H         1 <0>         0.0702
     41 H20        -4.4968   -3.1614   -2.4515 H         1 <0>         0.0803
     42 H21        -2.3295   -3.9871   -1.2562 H         1 <0>         0.0827
     43 H22        -2.3145   -2.3960   -0.4715 H         1 <0>         0.0195
     44 H23         1.6047   -2.4009    0.9525 H         1 <0>         0.4379
     45 H24         3.0582   -2.4534    0.1783 H         1 <0>         0.4334
     46 H25         2.1042   -1.1161    0.0498 H         1 <0>         0.4197
@<TRIPOS>BOND
     1    1    2 1
     2    1   25 1
     3    1   26 1
     4    1   27 1
     5    2    3 2
     6    2    4 am
     7    4    5 1
     8    4   28 1
     9    5    6 1
    10    5   12 1
    11    5    7 1
    12    7    8 1
    13    7    9 1
    14    7   24 1
    15    9   10 1
    16    9   29 1
    17    9   30 1
    18   10   11 2
    19   10   21 1
    20   11   12 1
    21   11   31 1
    22   12   13 1
    23   12   14 1
    24   14   20 1
    25   14   15 1
    26   15   16 1
    27   15   32 1
    28   15   33 1
    29   16   17 1
    30   16   34 1
    31   16   35 1
    32   17   18 1
    33   17   36 1
    34   17   37 1
    35   18   19 1
    36   18   38 1
    37   18   39 1
    38   19   20 1
    39   19   40 1
    40   19   41 1
    41   20   42 1
    42   20   43 1
    43   21   22 2
    44   21   23 1
    45   24   44 1
    46   24   45 1
    47   24   46 1
@<TRIPOS>MOLECULE
CHEMBL22808
   47    49     0     0     0
SMALL
USER_CHARGES

@<TRIPOS>ATOM
      1 C1          0.0620    1.4204    0.3928 C.3       1 <0>        -0.1796
      2 C2          0.0325   -0.0863    0.3886 C.2       1 <0>         0.5061
      3 O1          1.0150   -0.7130    0.7244 O.2       1 <0>        -0.5140
      4 N1         -1.0858   -0.7373    0.0117 N.am      1 <0>        -0.7465
      5 C3         -1.1145   -2.2020    0.0077 C.3       1 <0>         0.1291
      6 H1         -0.2311   -2.5870    0.5171 H         1 <0>         0.1267
      7 C4         -1.1389   -2.7129   -1.4381 C.3       1 <0>         0.0944
      8 H2         -2.0914   -2.4554   -1.9014 H         1 <0>         0.0451
      9 C5         -0.9711   -4.2336   -1.4192 C.3       1 <0>        -0.0836
     10 C6         -1.9338   -4.8475   -0.4449 C.2       1 <0>        -0.0684
     11 C7         -2.5516   -4.1683    0.5011 C.2       1 <0>        -0.2416
     12 C8         -2.3749   -2.6934    0.7224 C.3       1 <0>         0.0647
     13 H3         -3.2430   -2.1649    0.3284 H         1 <0>         0.1446
     14 N2         -2.2555   -2.4233    2.1614 N.4       1 <0>        -0.3820
     15 C9         -3.4580   -2.9114    2.8875 C.3       1 <0>         0.0352
     16 C10        -4.6893   -2.4504    2.0912 C.3       1 <0>        -0.1491
     17 C11        -4.7400   -0.9199    2.0989 C.3       1 <0>        -0.1349
     18 C12        -3.4095   -0.3561    1.5918 C.3       1 <0>        -0.1478
     19 C13        -2.2649   -0.9591    2.4219 C.3       1 <0>         0.0311
     20 C14        -2.6502   -0.8412    3.9145 C.3       1 <0>        -0.1392
     21 C15        -3.4386   -2.1313    4.2222 C.3       1 <0>        -0.1394
     22 C16        -2.2030   -6.2856   -0.5518 C.2       1 <0>         0.5033
     23 O2         -2.9821   -6.8217    0.2249 O.co2     1 <0>        -0.6765
     24 O3         -1.6485   -6.9492   -1.4177 O.co2     1 <0>        -0.6650
     25 N3         -0.0399   -2.1006   -2.1965 N.3       1 <0>        -0.8344
     26 H4          1.0421    1.7637    0.7240 H         1 <0>         0.0996
     27 H5         -0.1314    1.7904   -0.6141 H         1 <0>         0.0943
     28 H6         -0.7033    1.7970    1.0715 H         1 <0>         0.0885
     29 H7         -1.8716   -0.2361   -0.2568 H         1 <0>         0.4027
     30 H8         -1.1630   -4.6308   -2.4159 H         1 <0>         0.0970
     31 H9          0.0487   -4.4809   -1.1240 H         1 <0>         0.0988
     32 H10        -3.2214   -4.7039    1.1575 H         1 <0>         0.1437
     33 H11        -3.4377   -3.9905    3.0405 H         1 <0>         0.1540
     34 H12        -4.6149   -2.8081    1.0643 H         1 <0>         0.0964
     35 H13        -5.5928   -2.8479    2.5536 H         1 <0>         0.1099
     36 H14        -5.5480   -0.5807    1.4507 H         1 <0>         0.0902
     37 H15        -4.9191   -0.5681    3.1148 H         1 <0>         0.0860
     38 H16        -3.2776   -0.6197    0.5424 H         1 <0>         0.0861
     39 H17        -3.4074    0.7284    1.7007 H         1 <0>         0.1079
     40 H18        -1.3052   -0.4939    2.1967 H         1 <0>         0.1411
     41 H19        -1.7552   -0.7868    4.5342 H         1 <0>         0.0945
     42 H20        -3.2783    0.0348    4.0761 H         1 <0>         0.1091
     43 H21        -4.4544   -1.8896    4.5350 H         1 <0>         0.1104
     44 H22        -2.9313   -2.7112    4.9931 H         1 <0>         0.0965
     45 H23        -0.0367   -2.4230   -3.1526 H         1 <0>         0.3542
     46 H24        -0.0887   -1.0936   -2.1546 H         1 <0>         0.3378
     47 H25        -1.4177   -2.8449    2.5334 H         1 <0>         0.4230
@<TRIPOS>BOND
     1    1    2 1
     2    1   26 1
     3    1   27 1
     4    1   28 1
     5    2    3 2
     6    2    4 am
     7    4    5 1
     8    4   29 1
     9    5    6 1
    10    5   12 1
    11    5    7 1
    12    7    8 1
    13    7    9 1
    14    7   25 1
    15    9   10 1
    16    9   30 1
    17    9   31 1
    18   10   11 2
    19   10   22 1
    20   11   12 1
    21   11   32 1
    22   12   13 1
    23   12   14 1
    24   14   19 1
    25   14   15 1
    26   14   47 1
    27   15   21 1
    28   15   16 1
    29   15   33 1
    30   16   17 1
    31   16   34 1
    32   16   35 1
    33   17   18 1
    34   17   36 1
    35   17   37 1
    36   18   19 1
    37   18   38 1
    38   18   39 1
    39   19   20 1
    40   19   40 1
    41   20   21 1
    42   20   41 1
    43   20   42 1
    44   21   43 1
    45   21   44 1
    46   22   23 2
    47   22   24 1
    48   25   45 1
    49   25   46 1
@<TRIPOS>MOLECULE
CHEMBL147283
   63    64     0     0     0
SMALL
USER_CHARGES

@<TRIPOS>ATOM
      1 C1         -3.5063    1.5005   -0.2757 C.3       1 <0>        -0.1542
      2 C2         -2.6049    0.2886   -0.0314 C.3       1 <0>        -0.1521
      3 C3         -3.3459   -0.9877   -0.4350 C.3       1 <0>         0.0969
      4 N1         -2.5435   -2.1561   -0.0646 N.am      1 <0>        -0.6027
      5 C4         -2.7466   -2.8023    1.2344 C.3       1 <0>         0.1220
      6 C5         -3.8095   -3.8946    1.1001 C.3       1 <0>        -0.0919
      7 C6         -4.0184   -4.5592    2.4364 C.ar      1 <0>        -0.0887
      8 C7         -3.2573   -5.6583    2.7882 C.ar      1 <0>        -0.1121
      9 C8         -3.4489   -6.2680    4.0139 C.ar      1 <0>        -0.1162
     10 C9         -4.4013   -5.7783    4.8881 C.ar      1 <0>        -0.1184
     11 C10        -5.1617   -4.6787    4.5367 C.ar      1 <0>        -0.1178
     12 C11        -4.9672   -4.0664    3.3127 C.ar      1 <0>        -0.1163
     13 C12        -1.6185   -2.6366   -0.9189 C.2       1 <0>         0.5227
     14 O1         -0.9106   -3.5640   -0.5876 O.2       1 <0>        -0.4778
     15 C13        -1.4637   -2.0215   -2.2860 C.3       1 <0>         0.0618
     16 H1         -2.2291   -1.2599   -2.4351 H         1 <0>         0.1080
     17 C14        -0.0714   -1.3879   -2.4139 C.3       1 <0>         0.1113
     18 H2          0.6936   -2.1584   -2.3178 H         1 <0>         0.1364
     19 C15         0.0286   -0.7291   -3.7940 C.3       1 <0>         0.1737
     20 H3         -0.5730    0.1797   -3.8073 H         1 <0>         0.1180
     21 C16        -0.4789   -1.6821   -4.8417 C.2       1 <0>        -0.3226
     22 C17        -1.2191   -2.7185   -4.5486 C.2       1 <0>         0.1395
     23 O2         -1.5895   -3.0346   -3.2879 O.3       1 <0>        -0.2725
     24 C18        -1.6844   -3.6061   -5.6740 C.3       1 <0>         0.3218
     25 O3         -1.1927   -4.9321   -5.4693 O.3       1 <0>        -0.5693
     26 O4         -3.1129   -3.6272   -5.7046 O.3       1 <0>        -0.5642
     27 N2          1.4267   -0.3936   -4.0749 N.pl3     1 <0>        -0.6459
     28 C19         1.7115    0.5679   -4.9077 C.cat     1 <0>         0.7438
     29 N3          0.6999    1.2670   -5.5224 N.pl3     1 <0>        -0.8126
     30 N4          3.0235    0.8828   -5.1714 N.pl3     1 <0>        -0.8096
     31 N5          0.1102   -0.3778   -1.3685 N.am      1 <0>        -0.7373
     32 C20         0.7168   -0.7075   -0.2110 C.2       1 <0>         0.5079
     33 O5          1.1977   -1.8121   -0.0715 O.2       1 <0>        -0.4967
     34 C21         0.7976    0.2965    0.9100 C.3       1 <0>        -0.1735
     35 H4         -3.0133    2.4001    0.0928 H         1 <0>         0.0626
     36 H5         -3.6968    1.6022   -1.3441 H         1 <0>         0.0555
     37 H6         -4.4510    1.3626    0.2503 H         1 <0>         0.0636
     38 H7         -1.6970    0.3852   -0.6268 H         1 <0>         0.0607
     39 H8         -2.3428    0.2378    1.0253 H         1 <0>         0.0739
     40 H9         -4.3061   -1.0285    0.0795 H         1 <0>         0.0940
     41 H10        -3.5108   -0.9869   -1.5124 H         1 <0>         0.0777
     42 H11        -1.8094   -3.2465    1.5697 H         1 <0>         0.0909
     43 H12        -3.0776   -2.0606    1.9614 H         1 <0>         0.0841
     44 H13        -4.7467   -3.4503    0.7648 H         1 <0>         0.0742
     45 H14        -3.4784   -4.6363    0.3732 H         1 <0>         0.0763
     46 H15        -2.5132   -6.0408    2.1052 H         1 <0>         0.1218
     47 H16        -2.8548   -7.1270    4.2885 H         1 <0>         0.1239
     48 H17        -4.5515   -6.2551    5.8454 H         1 <0>         0.1237
     49 H18        -5.9060   -4.2964    5.2195 H         1 <0>         0.1236
     50 H19        -5.5587   -3.2051    3.0397 H         1 <0>         0.1200
     51 H20        -0.2221   -1.5027   -5.8753 H         1 <0>         0.1490
     52 H21        -1.3064   -3.2206   -6.6209 H         1 <0>         0.1282
     53 H22        -1.4541   -5.5592   -6.1575 H         1 <0>         0.4020
     54 H23        -3.5188   -3.9599   -4.8924 H         1 <0>         0.3955
     55 H24        -0.2259    1.0448   -5.3364 H         1 <0>         0.4364
     56 H25         0.9118    1.9825   -6.1422 H         1 <0>         0.4396
     57 H26         3.7373    0.3895   -4.7376 H         1 <0>         0.4398
     58 H27         3.2355    1.5983   -5.7911 H         1 <0>         0.4403
     59 H28        -0.2061    0.5283   -1.5094 H         1 <0>         0.4053
     60 H29        -0.0302    0.1369    1.6010 H         1 <0>         0.1014
     61 H30         1.7421    0.1740    1.4401 H         1 <0>         0.1017
     62 H31         0.7392    1.3046    0.4997 H         1 <0>         0.0805
     63 H32         2.1405   -0.8868   -3.6412 H         1 <0>         0.4425
@<TRIPOS>BOND
     1    1    2 1
     2    1   35 1
     3    1   36 1
     4    1   37 1
     5    2    3 1
     6    2   38 1
     7    2   39 1
     8    3    4 1
     9    3   40 1
    10    3   41 1
    11    4    5 1
    12    4   13 am
    13    5    6 1
    14    5   42 1
    15    5   43 1
    16    6    7 1
    17    6   44 1
    18    6   45 1
    19    7   12 ar
    20    7    8 ar
    21    8    9 ar
    22    8   46 1
    23    9   10 ar
    24    9   47 1
    25   10   11 ar
    26   10   48 1
    27   11   12 ar
    28   11   49 1
    29   12   50 1
    30   13   14 2
    31   13   15 1
    32   15   16 1
    33   15   23 1
    34   15   17 1
    35   17   18 1
    36   17   19 1
    37   17   31 1
    38   19   20 1
    39   19   21 1
    40   19   27 1
    41   21   22 2
    42   21   51 1
    43   22   23 1
    44   22   24 1
    45   24   25 1
    46   24   26 1
    47   24   52 1
    48   25   53 1
    49   26   54 1
    50   27   28 2
    51   27   63 1
    52   28   29 1
    53   28   30 1
    54   29   55 1
    55   29   56 1
    56   30   57 1
    57   30   58 1
    58   31   32 am
    59   31   59 1
    60   32   33 2
    61   32   34 1
    62   34   60 1
    63   34   61 1
    64   34   62 1
@<TRIPOS>MOLECULE
CHEMBL292393
   58    59     0     0     0
SMALL
USER_CHARGES

@<TRIPOS>ATOM
      1 C1         -0.4556    1.6807   -0.3328 C.3       1 <0>        -0.1485
      2 C2         -0.4847    0.1637   -0.1361 C.3       1 <0>        -0.1410
      3 C3         -1.8233   -0.3889   -0.6296 C.3       1 <0>         0.1182
      4 N1         -1.8512   -1.8415   -0.4413 N.am      1 <0>        -0.6050
      5 C4         -2.3580   -2.4082    0.8110 C.3       1 <0>         0.1239
      6 C5         -3.8779   -2.5603    0.7238 C.3       1 <0>        -0.1763
      7 C6         -4.4512   -3.9772    0.7911 C.3       1 <0>        -0.1860
      8 C7         -4.6143   -3.0286    1.9804 C.3       1 <0>        -0.1681
      9 C8         -1.4107   -2.6565   -1.4201 C.2       1 <0>         0.5057
     10 O1         -0.9219   -2.1871   -2.4259 O.2       1 <0>        -0.4969
     11 C9         -1.5253   -4.1511   -1.2648 C.3       1 <0>         0.1319
     12 C10        -0.1472   -4.7389   -0.9550 C.3       1 <0>        -0.1082
     13 H1          0.5739   -4.4398   -1.7157 H         1 <0>         0.1159
     14 C11         0.3296   -4.2921    0.4493 C.3       1 <0>        -0.0889
     15 C12         1.3485   -5.3944    0.8312 C.3       1 <0>        -0.1558
     16 C13         0.7252   -6.6932    0.2793 C.3       1 <0>        -0.1134
     17 C14        -0.2250   -6.2767   -0.8599 C.3       1 <0>         0.1190
     18 H2         -1.2442   -6.5852   -0.6270 H         1 <0>         0.1025
     19 N2          0.2063   -6.8801   -2.1233 N.pl3     1 <0>        -0.6374
     20 C15        -0.2160   -8.0675   -2.4561 C.cat     1 <0>         0.7329
     21 N3         -1.0662   -8.7536   -1.6215 N.pl3     1 <0>        -0.8142
     22 N4          0.1888   -8.6337   -3.6417 N.pl3     1 <0>        -0.8217
     23 C16         1.5000   -5.4768    2.3283 C.2       1 <0>         0.4967
     24 O2          1.7782   -6.5405    2.8552 O.co2     1 <0>        -0.6933
     25 O3          1.3444   -4.4798    3.0125 O.co2     1 <0>        -0.6833
     26 N5         -2.0364   -4.7335   -2.5081 N.am      1 <0>        -0.7277
     27 C17        -1.3500   -4.5773   -3.6574 C.2       1 <0>         0.4946
     28 O4         -0.3092   -3.9546   -3.6624 O.2       1 <0>        -0.4887
     29 C18        -1.8757   -5.1764   -4.9364 C.3       1 <0>        -0.1720
     30 H3          0.4981    2.0744    0.0188 H         1 <0>         0.0584
     31 H4         -0.5763    1.9123   -1.3910 H         1 <0>         0.0541
     32 H5         -1.2678    2.1362    0.2338 H         1 <0>         0.0545
     33 H6          0.3275   -0.2918   -0.7027 H         1 <0>         0.0669
     34 H7         -0.3640   -0.0679    0.9221 H         1 <0>         0.0671
     35 H8         -2.6355    0.0665   -0.0630 H         1 <0>         0.0771
     36 H9         -1.9441   -0.1574   -1.6878 H         1 <0>         0.0798
     37 H10        -1.9041   -3.3851    0.9777 H         1 <0>         0.0902
     38 H11        -2.1061   -1.7446    1.6383 H         1 <0>         0.0928
     39 H12        -4.3862   -1.8414    0.0811 H         1 <0>         0.1080
     40 H13        -5.3367   -4.1909    0.1926 H         1 <0>         0.0941
     41 H14        -3.7455   -4.8011    0.8976 H         1 <0>         0.0924
     42 H15        -4.0160   -3.2284    2.8694 H         1 <0>         0.1025
     43 H16        -5.6072   -2.6182    2.1643 H         1 <0>         0.0976
     44 H17        -2.2099   -4.3801   -0.4481 H         1 <0>         0.1132
     45 H18         0.8152   -3.3174    0.4004 H         1 <0>         0.0792
     46 H19        -0.5030   -4.2752    1.1526 H         1 <0>         0.0786
     47 H20         2.3122   -5.2032    0.3592 H         1 <0>         0.0752
     48 H21         1.5065   -7.3467   -0.1088 H         1 <0>         0.0721
     49 H22         0.1676   -7.2030    1.0650 H         1 <0>         0.0932
     50 H23        -1.3518   -8.3541   -0.7850 H         1 <0>         0.4375
     51 H24        -1.3804   -9.6372   -1.8692 H         1 <0>         0.4337
     52 H25         0.7887   -8.1496   -4.2305 H         1 <0>         0.4355
     53 H26        -0.1254   -9.5174   -3.8893 H         1 <0>         0.4347
     54 H27        -2.8688   -5.2315   -2.5042 H         1 <0>         0.4018
     55 H28        -2.8137   -5.6942   -4.7364 H         1 <0>         0.0723
     56 H29        -2.0462   -4.3842   -5.6655 H         1 <0>         0.0985
     57 H30        -1.1473   -5.8840   -5.3325 H         1 <0>         0.0868
     58 H31         0.8062   -6.3960   -2.7121 H         1 <0>         0.4371
@<TRIPOS>BOND
     1    1    2 1
     2    1   30 1
     3    1   31 1
     4    1   32 1
     5    2    3 1
     6    2   33 1
     7    2   34 1
     8    3    4 1
     9    3   35 1
    10    3   36 1
    11    4    5 1
    12    4    9 am
    13    5    6 1
    14    5   37 1
    15    5   38 1
    16    6    8 1
    17    6    7 1
    18    6   39 1
    19    7    8 1
    20    7   40 1
    21    7   41 1
    22    8   42 1
    23    8   43 1
    24    9   10 2
    25    9   11 1
    26   11   12 1
    27   11   26 1
    28   11   44 1
    29   12   13 1
    30   12   17 1
    31   12   14 1
    32   14   15 1
    33   14   45 1
    34   14   46 1
    35   15   16 1
    36   15   23 1
    37   15   47 1
    38   16   17 1
    39   16   48 1
    40   16   49 1
    41   17   18 1
    42   17   19 1
    43   19   20 2
    44   19   58 1
    45   20   21 1
    46   20   22 1
    47   21   50 1
    48   21   51 1
    49   22   52 1
    50   22   53 1
    51   23   24 2
    52   23   25 1
    53   26   27 am
    54   26   54 1
    55   27   28 2
    56   27   29 1
    57   29   55 1
    58   29   56 1
    59   29   57 1
@<TRIPOS>MOLECULE
CHEMBL292393__1
   58    59     0     0     0
SMALL
USER_CHARGES

@<TRIPOS>ATOM
      1 C1         -0.9990    1.4386    0.7721 C.3       1 <0>        -0.1482
      2 C2         -0.8800   -0.0812    0.6414 C.3       1 <0>        -0.1419
      3 C3         -2.1115   -0.6288   -0.0827 C.3       1 <0>         0.1201
      4 N1         -1.9975   -2.0840   -0.2079 N.am      1 <0>        -0.6081
      5 C4         -2.5320   -2.9537    0.8429 C.3       1 <0>         0.1250
      6 C5         -4.0123   -3.2299    0.5723 C.3       1 <0>        -0.1796
      7 C6         -5.0253   -2.7204    1.5996 C.3       1 <0>        -0.1740
      8 C7         -4.7271   -4.2175    1.4967 C.3       1 <0>        -0.1742
      9 C8         -1.4009   -2.6226   -1.2897 C.2       1 <0>         0.5031
     10 O1         -0.8726   -1.9041   -2.1116 O.2       1 <0>        -0.4904
     11 C9         -1.3902   -4.1177   -1.4781 C.3       1 <0>         0.1324
     12 C10         0.0145   -4.6568   -1.2002 C.3       1 <0>        -0.1008
     13 H1          0.7182   -4.2593   -1.9315 H         1 <0>         0.1158
     14 C11         0.4563   -4.2684    0.2217 C.3       1 <0>        -0.1093
     15 C12         0.7040   -5.5876    0.9820 C.3       1 <0>        -0.1533
     16 C13         0.9926   -6.6213   -0.1348 C.3       1 <0>        -0.1128
     17 C14         0.0094   -6.1985   -1.2555 C.3       1 <0>         0.1161
     18 H2         -0.9896   -6.5842   -1.0519 H         1 <0>         0.1073
     19 N2          0.4851   -6.6663   -2.5597 N.pl3     1 <0>        -0.6361
     20 C15         0.1217   -7.8363   -3.0046 C.cat     1 <0>         0.7342
     21 N3         -0.7079   -8.6314   -2.2499 N.pl3     1 <0>        -0.8159
     22 N4          0.5682   -8.2753   -4.2286 N.pl3     1 <0>        -0.8210
     23 C16         1.8939   -5.4536    1.8970 C.2       1 <0>         0.4959
     24 O2          1.8674   -5.9533    3.0088 O.co2     1 <0>        -0.6891
     25 O3          2.8832   -4.8455    1.5254 O.co2     1 <0>        -0.6849
     26 N5         -1.7729   -4.4391   -2.8553 N.am      1 <0>        -0.7301
     27 C17        -1.0367   -3.9760   -3.8848 C.2       1 <0>         0.4927
     28 O4         -0.0575   -3.2931   -3.6712 O.2       1 <0>        -0.4832
     29 C18        -1.4304   -4.3066   -5.3014 C.3       1 <0>        -0.1713
     30 H3         -0.1217    1.8287    1.2880 H         1 <0>         0.0589
     31 H4         -1.0652    1.8846   -0.2203 H         1 <0>         0.0546
     32 H5         -1.8950    1.6852    1.3417 H         1 <0>         0.0537
     33 H6          0.0160   -0.3278    0.0718 H         1 <0>         0.0693
     34 H7         -0.8138   -0.5271    1.6338 H         1 <0>         0.0645
     35 H8         -3.0075   -0.3822    0.4869 H         1 <0>         0.0772
     36 H9         -2.1776   -0.1828   -1.0751 H         1 <0>         0.0797
     37 H10        -1.9822   -3.8948    0.8502 H         1 <0>         0.0911
     38 H11        -2.4248   -2.4628    1.8102 H         1 <0>         0.0886
     39 H12        -4.3089   -3.2171   -0.4765 H         1 <0>         0.1039
     40 H13        -4.6371   -2.1885    2.4682 H         1 <0>         0.0983
     41 H14        -5.9885   -2.3722    1.2267 H         1 <0>         0.0943
     42 H15        -5.4942   -4.8543    1.0561 H         1 <0>         0.0955
     43 H16        -4.1428   -4.6705    2.2976 H         1 <0>         0.1006
     44 H17        -2.0984   -4.5760   -0.7879 H         1 <0>         0.1112
     45 H18         1.3748   -3.6831    0.1805 H         1 <0>         0.0953
     46 H19        -0.3300   -3.6958    0.7137 H         1 <0>         0.0691
     47 H20        -0.1828   -5.8744    1.5474 H         1 <0>         0.0739
     48 H21         2.0244   -6.5423   -0.4770 H         1 <0>         0.0882
     49 H22         0.7748   -7.6324    0.2091 H         1 <0>         0.0752
     50 H23        -1.0229   -8.3217   -1.3864 H         1 <0>         0.4369
     51 H24        -0.9783   -9.5021   -2.5810 H         1 <0>         0.4338
     52 H25         1.1535   -7.7143   -4.7611 H         1 <0>         0.4359
     53 H26         0.2978   -9.1461   -4.5597 H         1 <0>         0.4348
     54 H27        -2.5561   -4.9853   -3.0261 H         1 <0>         0.4009
     55 H28        -2.3285   -4.9243   -5.2942 H         1 <0>         0.0714
     56 H29        -1.6280   -3.3846   -5.8482 H         1 <0>         0.0980
     57 H30        -0.6196   -4.8500   -5.7865 H         1 <0>         0.0891
     58 H31         1.0705   -6.1053   -3.0922 H         1 <0>         0.4376
@<TRIPOS>BOND
     1    1    2 1
     2    1   30 1
     3    1   31 1
     4    1   32 1
     5    2    3 1
     6    2   33 1
     7    2   34 1
     8    3    4 1
     9    3   35 1
    10    3   36 1
    11    4    5 1
    12    4    9 am
    13    5    6 1
    14    5   37 1
    15    5   38 1
    16    6    8 1
    17    6    7 1
    18    6   39 1
    19    7    8 1
    20    7   40 1
    21    7   41 1
    22    8   42 1
    23    8   43 1
    24    9   10 2
    25    9   11 1
    26   11   12 1
    27   11   26 1
    28   11   44 1
    29   12   13 1
    30   12   17 1
    31   12   14 1
    32   14   15 1
    33   14   45 1
    34   14   46 1
    35   15   16 1
    36   15   23 1
    37   15   47 1
    38   16   17 1
    39   16   48 1
    40   16   49 1
    41   17   18 1
    42   17   19 1
    43   19   20 2
    44   19   58 1
    45   20   21 1
    46   20   22 1
    47   21   50 1
    48   21   51 1
    49   22   52 1
    50   22   53 1
    51   23   24 2
    52   23   25 1
    53   26   27 am
    54   26   54 1
    55   27   28 2
    56   27   29 1
    57   29   55 1
    58   29   56 1
    59   29   57 1
@<TRIPOS>MOLECULE
CHEMBL292393__2
   58    59     0     0     0
SMALL
USER_CHARGES

@<TRIPOS>ATOM
      1 C1         -0.1022    1.1174   -1.4810 C.3       1 <0>        -0.1507
      2 C2         -0.2240   -0.3325   -1.0078 C.3       1 <0>        -0.1354
      3 C3         -1.6775   -0.7916   -1.1395 C.3       1 <0>         0.1178
      4 N1         -1.7941   -2.1799   -0.6864 N.am      1 <0>        -0.6141
      5 C4         -2.0872   -2.4693    0.7195 C.3       1 <0>         0.1396
      6 C5         -3.5890   -2.3175    0.9692 C.3       1 <0>        -0.1926
      7 C6         -4.0350   -1.2415    1.9612 C.3       1 <0>        -0.1605
      8 C7         -4.1204   -2.7197    2.3464 C.3       1 <0>        -0.1958
      9 C8         -1.6318   -3.1907   -1.5629 C.2       1 <0>         0.5041
     10 O1         -1.3144   -2.9542   -2.7093 O.2       1 <0>        -0.4747
     11 C9         -1.8448   -4.6149   -1.1186 C.3       1 <0>         0.1406
     12 C10        -3.3165   -4.8208   -0.7543 C.3       1 <0>        -0.1291
     13 H1         -3.6485   -4.0484   -0.0606 H         1 <0>         0.1137
     14 C11        -4.1959   -4.8186   -2.0293 C.3       1 <0>        -0.0898
     15 C12        -5.4490   -5.6114   -1.5816 C.3       1 <0>        -0.1625
     16 C13        -4.8875   -6.7259   -0.6747 C.3       1 <0>        -0.1099
     17 C14        -3.5310   -6.2219   -0.1454 C.3       1 <0>         0.1128
     18 H2         -2.7337   -6.8934   -0.4638 H         1 <0>         0.1044
     19 N2         -3.5604   -6.1345    1.3167 N.pl3     1 <0>        -0.6448
     20 C15        -3.2452   -7.1733    2.0381 C.cat     1 <0>         0.7337
     21 N3         -2.8852   -8.3510    1.4270 N.pl3     1 <0>        -0.8121
     22 N4         -3.2728   -7.0913    3.4102 N.pl3     1 <0>        -0.8213
     23 C16        -6.1511   -6.2062   -2.7750 C.2       1 <0>         0.4950
     24 O2         -6.7730   -7.2485   -2.6595 O.co2     1 <0>        -0.6999
     25 O3         -6.0973   -5.6450   -3.8561 O.co2     1 <0>        -0.6774
     26 N5         -1.4788   -5.5257   -2.2061 N.am      1 <0>        -0.7342
     27 C17        -1.9190   -5.2914   -3.4582 C.2       1 <0>         0.5061
     28 O4         -2.5571   -4.2885   -3.6990 O.2       1 <0>        -0.4681
     29 C18        -1.6182   -6.2755   -4.5591 C.3       1 <0>        -0.1694
     30 H3          0.9334    1.4444   -1.3871 H         1 <0>         0.0568
     31 H4         -0.4119    1.1865   -2.5238 H         1 <0>         0.0586
     32 H5         -0.7412    1.7542   -0.8692 H         1 <0>         0.0549
     33 H6          0.4151   -0.9693   -1.6195 H         1 <0>         0.0650
     34 H7          0.0858   -0.4016    0.0350 H         1 <0>         0.0578
     35 H8         -2.3165   -0.1548   -0.5278 H         1 <0>         0.0767
     36 H9         -1.9872   -0.7225   -2.1823 H         1 <0>         0.0862
     37 H10        -1.7815   -3.4895    0.9517 H         1 <0>         0.0740
     38 H11        -1.5409   -1.7727    1.3554 H         1 <0>         0.0827
     39 H12        -4.2301   -2.5053    0.1079 H         1 <0>         0.1217
     40 H13        -3.2584   -0.6417    2.4359 H         1 <0>         0.0997
     41 H14        -4.9696   -0.7209    1.7526 H         1 <0>         0.1003
     42 H15        -5.1112   -3.1717    2.3912 H         1 <0>         0.0995
     43 H16        -3.4000   -3.0925    3.0746 H         1 <0>         0.0947
     44 H17        -1.2227   -4.8206   -0.2475 H         1 <0>         0.0996
     45 H18        -4.4636   -3.8006   -2.3123 H         1 <0>         0.0735
     46 H19        -3.6891   -5.3280   -2.8490 H         1 <0>         0.1068
     47 H20        -6.1269   -4.9682   -1.0204 H         1 <0>         0.0660
     48 H21        -5.5670   -6.9074    0.1581 H         1 <0>         0.0690
     49 H22        -4.7487   -7.6411   -1.2502 H         1 <0>         0.0909
     50 H23        -2.8657   -8.4089    0.4589 H         1 <0>         0.4387
     51 H24        -2.6506   -9.1241    1.9638 H         1 <0>         0.4347
     52 H25        -3.5268   -6.2604    3.8414 H         1 <0>         0.4348
     53 H26        -3.0382   -7.8644    3.9471 H         1 <0>         0.4356
     54 H27        -0.9197   -6.2974   -2.0250 H         1 <0>         0.4001
     55 H28        -1.0398   -7.1066   -4.1556 H         1 <0>         0.0687
     56 H29        -2.5527   -6.6516   -4.9756 H         1 <0>         0.1013
     57 H30        -1.0446   -5.7802   -5.3426 H         1 <0>         0.0940
     58 H31        -3.8144   -5.3036    1.7479 H         1 <0>         0.4323
@<TRIPOS>BOND
     1    1    2 1
     2    1   30 1
     3    1   31 1
     4    1   32 1
     5    2    3 1
     6    2   33 1
     7    2   34 1
     8    3    4 1
     9    3   35 1
    10    3   36 1
    11    4    5 1
    12    4    9 am
    13    5    6 1
    14    5   37 1
    15    5   38 1
    16    6    8 1
    17    6    7 1
    18    6   39 1
    19    7    8 1
    20    7   40 1
    21    7   41 1
    22    8   42 1
    23    8   43 1
    24    9   10 2
    25    9   11 1
    26   11   12 1
    27   11   26 1
    28   11   44 1
    29   12   13 1
    30   12   17 1
    31   12   14 1
    32   14   15 1
    33   14   45 1
    34   14   46 1
    35   15   16 1
    36   15   23 1
    37   15   47 1
    38   16   17 1
    39   16   48 1
    40   16   49 1
    41   17   18 1
    42   17   19 1
    43   19   20 2
    44   19   58 1
    45   20   21 1
    46   20   22 1
    47   21   50 1
    48   21   51 1
    49   22   52 1
    50   22   53 1
    51   23   24 2
    52   23   25 1
    53   26   27 am
    54   26   54 1
    55   27   28 2
    56   27   29 1
    57   29   55 1
    58   29   56 1
    59   29   57 1
@<TRIPOS>MOLECULE
CHEMBL292393__3
   58    59     0     0     0
SMALL
USER_CHARGES

@<TRIPOS>ATOM
      1 C1         -0.3485    1.4774   -1.2885 C.3       1 <0>        -0.1500
      2 C2         -0.0852    0.0654   -0.7615 C.3       1 <0>        -0.1335
      3 C3         -1.3777   -0.7511   -0.8224 C.3       1 <0>         0.1153
      4 N1         -1.1255   -2.1031   -0.3178 N.am      1 <0>        -0.6001
      5 C4         -1.2962   -2.3968    1.1073 C.3       1 <0>         0.1302
      6 C5         -2.6863   -1.9440    1.5584 C.3       1 <0>        -0.1805
      7 C6         -2.7613   -0.8448    2.6200 C.3       1 <0>        -0.1754
      8 C7         -3.1123   -2.2881    2.9870 C.3       1 <0>        -0.1671
      9 C8         -0.7365   -3.0768   -1.1646 C.2       1 <0>         0.5044
     10 O1         -0.4968   -2.8123   -2.3237 O.2       1 <0>        -0.4998
     11 C9         -0.5993   -4.4941   -0.6712 C.3       1 <0>         0.1226
     12 C10        -1.8611   -5.2826   -1.0276 C.3       1 <0>        -0.0923
     13 H1         -1.7219   -6.3370   -0.7894 H         1 <0>         0.0920
     14 C11        -3.0683   -4.7226   -0.2552 C.3       1 <0>        -0.1168
     15 C12        -4.0807   -4.2357   -1.3125 C.3       1 <0>        -0.1457
     16 C13        -3.7287   -5.0531   -2.5801 C.3       1 <0>        -0.1227
     17 C14        -2.1813   -5.1175   -2.5277 C.3       1 <0>         0.0838
     18 H2         -1.7480   -4.1936   -2.9108 H         1 <0>         0.1863
     19 N2         -1.6890   -6.2697   -3.2868 N.pl3     1 <0>        -0.6344
     20 C15        -1.6084   -6.2077   -4.5863 C.cat     1 <0>         0.7529
     21 N3         -1.9855   -5.0611   -5.2445 N.pl3     1 <0>        -0.7974
     22 N4         -1.1464   -7.2889   -5.2988 N.pl3     1 <0>        -0.8342
     23 C16        -5.4902   -4.5316   -0.8687 C.2       1 <0>         0.4975
     24 O2         -6.3745   -3.7151   -1.0627 O.co2     1 <0>        -0.6903
     25 O3         -5.7462   -5.5876   -0.3156 O.co2     1 <0>        -0.6902
     26 N5          0.5635   -5.1212   -1.3043 N.am      1 <0>        -0.7203
     27 C17         0.6619   -5.1564   -2.6480 C.2       1 <0>         0.5013
     28 O4         -0.1768   -4.6091   -3.3320 O.2       1 <0>        -0.5031
     29 C18         1.8142   -5.8759   -3.3006 C.3       1 <0>        -0.1727
     30 H3          0.5723    2.0590   -1.2451 H         1 <0>         0.0560
     31 H4         -0.6946    1.4213   -2.3206 H         1 <0>         0.0560
     32 H5         -1.1109    1.9578   -0.6752 H         1 <0>         0.0573
     33 H6          0.6773   -0.4150   -1.3748 H         1 <0>         0.0618
     34 H7          0.2609    0.1214    0.2706 H         1 <0>         0.0604
     35 H8         -2.1401   -0.2707   -0.2092 H         1 <0>         0.0847
     36 H9         -1.7237   -0.8071   -1.8545 H         1 <0>         0.0821
     37 H10        -1.1921   -3.4692    1.2723 H         1 <0>         0.0889
     38 H11        -0.5370   -1.8655    1.6812 H         1 <0>         0.0736
     39 H12        -3.4568   -1.9529    0.7874 H         1 <0>         0.1185
     40 H13        -1.8203   -0.4443    2.9971 H         1 <0>         0.0941
     41 H14        -3.5812   -0.1302    2.5476 H         1 <0>         0.0967
     42 H15        -4.1632   -2.5230    3.1560 H         1 <0>         0.1021
     43 H16        -2.4023   -2.8370    3.6055 H         1 <0>         0.0956
     44 H17        -0.4663   -4.4909    0.4106 H         1 <0>         0.1179
     45 H18        -3.5155   -5.5055    0.3573 H         1 <0>         0.0937
     46 H19        -2.7553   -3.8891    0.3736 H         1 <0>         0.0785
     47 H20        -3.9545   -3.1693   -1.4989 H         1 <0>         0.0670
     48 H21        -4.1583   -6.0534   -2.5264 H         1 <0>         0.0766
     49 H22        -4.0637   -4.5354   -3.4790 H         1 <0>         0.0649
     50 H23        -2.3115   -4.2982   -4.7418 H         1 <0>         0.4391
     51 H24        -1.9256   -5.0149   -6.2115 H         1 <0>         0.4260
     52 H25        -0.8803   -8.0979   -4.8344 H         1 <0>         0.4291
     53 H26        -1.0865   -7.2428   -6.2658 H         1 <0>         0.4312
     54 H27         1.2626   -5.5110   -0.7564 H         1 <0>         0.4085
     55 H28         2.4590   -6.3016   -2.5317 H         1 <0>         0.0775
     56 H29         1.4310   -6.6741   -3.9363 H         1 <0>         0.0849
     57 H30         2.3860   -5.1723   -3.9057 H         1 <0>         0.0969
     58 H31        -1.4229   -7.0786   -2.8225 H         1 <0>         0.4208
@<TRIPOS>BOND
     1    1    2 1
     2    1   30 1
     3    1   31 1
     4    1   32 1
     5    2    3 1
     6    2   33 1
     7    2   34 1
     8    3    4 1
     9    3   35 1
    10    3   36 1
    11    4    5 1
    12    4    9 am
    13    5    6 1
    14    5   37 1
    15    5   38 1
    16    6    8 1
    17    6    7 1
    18    6   39 1
    19    7    8 1
    20    7   40 1
    21    7   41 1
    22    8   42 1
    23    8   43 1
    24    9   10 2
    25    9   11 1
    26   11   12 1
    27   11   26 1
    28   11   44 1
    29   12   13 1
    30   12   17 1
    31   12   14 1
    32   14   15 1
    33   14   45 1
    34   14   46 1
    35   15   16 1
    36   15   23 1
    37   15   47 1
    38   16   17 1
    39   16   48 1
    40   16   49 1
    41   17   18 1
    42   17   19 1
    43   19   20 2
    44   19   58 1
    45   20   21 1
    46   20   22 1
    47   21   50 1
    48   21   51 1
    49   22   52 1
    50   22   53 1
    51   23   24 2
    52   23   25 1
    53   26   27 am
    54   26   54 1
    55   27   28 2
    56   27   29 1
    57   29   55 1
    58   29   56 1
    59   29   57 1
@<TRIPOS>MOLECULE
CHEMBL57800
   52    53     0     0     0
SMALL
USER_CHARGES

@<TRIPOS>ATOM
      1 C1         -2.5974    1.3557   -0.4984 C.3       1 <0>        -0.1764
      2 C2         -2.3543   -0.1279   -0.6023 C.2       1 <0>         0.5158
      3 O1         -3.0466   -0.8063   -1.3313 O.2       1 <0>        -0.5436
      4 N1         -1.3676   -0.7009    0.1150 N.am      1 <0>        -0.7152
      5 C3         -1.1966   -2.1558    0.0939 C.3       1 <0>         0.1345
      6 C4         -0.5322   -2.6101    1.3950 C.3       1 <0>        -0.1056
      7 H1         -0.3833   -3.6899    1.3895 H         1 <0>         0.1055
      8 C5          0.8174   -1.8779    1.5990 C.3       1 <0>        -0.0858
      9 C6          1.0243   -1.9633    3.1316 C.3       1 <0>        -0.1576
     10 C7         -0.3909   -1.7742    3.7156 C.3       1 <0>        -0.1133
     11 C8         -1.3824   -2.1886    2.6113 C.3       1 <0>         0.1112
     12 H2         -2.0200   -1.3450    2.3468 H         1 <0>         0.1090
     13 N2         -2.2020   -3.3148    3.0652 N.pl3     1 <0>        -0.6452
     14 C9         -3.3088   -3.0942    3.7173 C.cat     1 <0>         0.7376
     15 N3         -3.7071   -1.8047    3.9791 N.pl3     1 <0>        -0.8116
     16 N4         -4.0780   -4.1511    4.1433 N.pl3     1 <0>        -0.8193
     17 C10         1.9404   -0.8631    3.6022 C.2       1 <0>         0.4947
     18 O2          1.8169   -0.4057    4.7257 O.co2     1 <0>        -0.6932
     19 O3          2.8050   -0.4303    2.8595 O.co2     1 <0>        -0.6804
     20 C11        -0.3281   -2.5425   -1.0754 C.2       1 <0>         0.5088
     21 O4          0.3925   -1.7168   -1.5949 O.2       1 <0>        -0.5118
     22 N5         -0.3521   -3.8061   -1.5438 N.am      1 <0>        -0.6101
     23 C12        -1.2242   -4.8160   -0.9288 C.3       1 <0>         0.1059
     24 C13        -2.0888   -5.4522   -2.0217 C.3       1 <0>        -0.1374
     25 C14        -1.1844   -5.9943   -3.1310 C.3       1 <0>        -0.1202
     26 C15        -0.3903   -4.8429   -3.7523 C.3       1 <0>        -0.1365
     27 C16         0.4889   -4.1983   -2.6829 C.3       1 <0>         0.1102
     28 H3         -3.4291    1.6338   -1.1458 H         1 <0>         0.0953
     29 H4         -2.8380    1.6132    0.5330 H         1 <0>         0.0901
     30 H5         -1.7009    1.8933   -0.8074 H         1 <0>         0.0964
     31 H6         -0.7706   -0.1501    0.6452 H         1 <0>         0.4140
     32 H7         -2.1709   -2.6347   -0.0031 H         1 <0>         0.1088
     33 H8          1.6201   -2.3933    1.0716 H         1 <0>         0.0824
     34 H9          0.7461   -0.8393    1.2761 H         1 <0>         0.0814
     35 H10         1.4242   -2.9386    3.4089 H         1 <0>         0.0763
     36 H11        -0.5220   -2.4109    4.5905 H         1 <0>         0.0747
     37 H12        -0.5466   -0.7299    3.9865 H         1 <0>         0.0947
     38 H13        -3.1645   -1.0590    3.6785 H         1 <0>         0.4382
     39 H14        -4.5308   -1.6405    4.4644 H         1 <0>         0.4353
     40 H15        -3.7970   -5.0610    3.9586 H         1 <0>         0.4358
     41 H16        -4.9017   -3.9870    4.6286 H         1 <0>         0.4359
     42 H17        -0.6147   -5.5836   -0.4519 H         1 <0>         0.0734
     43 H18        -1.8652   -4.3415   -0.1858 H         1 <0>         0.0738
     44 H19        -2.6712   -6.2690   -1.5955 H         1 <0>         0.0751
     45 H20        -2.7624   -4.7018   -2.4356 H         1 <0>         0.0697
     46 H21        -0.4944   -6.7265   -2.7117 H         1 <0>         0.0660
     47 H22        -1.7957   -6.4694   -3.8982 H         1 <0>         0.0677
     48 H23         0.2361   -5.2261   -4.5578 H         1 <0>         0.0784
     49 H24        -1.0799   -4.0983   -4.1499 H         1 <0>         0.0669
     50 H25         0.9779   -3.3164   -3.0968 H         1 <0>         0.0945
     51 H26         1.2413   -4.9144   -2.3522 H         1 <0>         0.0702
     52 H27        -1.9210   -4.2246    2.8805 H         1 <0>         0.4349
@<TRIPOS>BOND
     1    1    2 1
     2    1   28 1
     3    1   29 1
     4    1   30 1
     5    2    3 2
     6    2    4 am
     7    4    5 1
     8    4   31 1
     9    5    6 1
    10    5   20 1
    11    5   32 1
    12    6    7 1
    13    6   11 1
    14    6    8 1
    15    8    9 1
    16    8   33 1
    17    8   34 1
    18    9   10 1
    19    9   17 1
    20    9   35 1
    21   10   11 1
    22   10   36 1
    23   10   37 1
    24   11   12 1
    25   11   13 1
    26   13   14 2
    27   13   52 1
    28   14   15 1
    29   14   16 1
    30   15   38 1
    31   15   39 1
    32   16   40 1
    33   16   41 1
    34   17   18 2
    35   17   19 1
    36   20   21 2
    37   20   22 am
    38   22   27 1
    39   22   23 1
    40   23   24 1
    41   23   42 1
    42   23   43 1
    43   24   25 1
    44   24   44 1
    45   24   45 1
    46   25   26 1
    47   25   46 1
    48   25   47 1
    49   26   27 1
    50   26   48 1
    51   26   49 1
    52   27   50 1
    53   27   51 1
@<TRIPOS>MOLECULE
CHEMBL57800__1
   52    53     0     0     0
SMALL
USER_CHARGES

@<TRIPOS>ATOM
      1 C1         -2.4383    1.4037   -0.5622 C.3       1 <0>        -0.1762
      2 C2         -2.2647   -0.0914   -0.6372 C.2       1 <0>         0.5153
      3 O1         -2.9961   -0.7521   -1.3440 O.2       1 <0>        -0.5434
      4 N1         -1.2968   -0.6942    0.0812 N.am      1 <0>        -0.7143
      5 C3         -1.1966   -2.1558    0.0939 C.3       1 <0>         0.1327
      6 C4         -0.5322   -2.6101    1.3950 C.3       1 <0>        -0.0963
      7 H1         -0.3866   -3.6903    1.3822 H         1 <0>         0.1039
      8 C5          0.8203   -1.8981    1.5729 C.3       1 <0>        -0.1116
      9 C6          0.7229   -1.0877    2.8820 C.3       1 <0>        -0.1543
     10 C7         -0.3805   -1.8098    3.6944 C.3       1 <0>        -0.1121
     11 C8         -1.4048   -2.2087    2.6022 C.3       1 <0>         0.1103
     12 H2         -2.0409   -1.3609    2.3480 H         1 <0>         0.1127
     13 N2         -2.2159   -3.3441    3.0486 N.pl3     1 <0>        -0.6440
     14 C9         -3.3321   -3.1360    3.6887 C.cat     1 <0>         0.7381
     15 N3         -3.7483   -1.8510    3.9449 N.pl3     1 <0>        -0.8134
     16 N4         -4.0933   -4.2015    4.1076 N.pl3     1 <0>        -0.8184
     17 C10         2.0340   -1.1249    3.6240 C.2       1 <0>         0.4967
     18 O2          2.4495   -0.1215    4.1782 O.co2     1 <0>        -0.6862
     19 O3          2.6792   -2.1584    3.6703 O.co2     1 <0>        -0.6863
     20 C11        -0.3683   -2.6127   -1.0793 C.2       1 <0>         0.5096
     21 O4          0.3820   -1.8359   -1.6311 O.2       1 <0>        -0.5159
     22 N5         -0.4615   -3.8846   -1.5153 N.am      1 <0>        -0.6088
     23 C12        -1.3705   -4.8356   -0.8610 C.3       1 <0>         0.1052
     24 C13        -2.2837   -5.4554   -1.9233 C.3       1 <0>        -0.1371
     25 C14        -1.4261   -6.0676   -3.0332 C.3       1 <0>        -0.1205
     26 C15        -0.5884   -4.9718   -3.6962 C.3       1 <0>        -0.1363
     27 C16         0.3395   -4.3448   -2.6578 C.3       1 <0>         0.1099
     28 H3         -3.2641    1.7064   -1.2062 H         1 <0>         0.0954
     29 H4         -2.6545    1.6933    0.4661 H         1 <0>         0.0905
     30 H5         -1.5219    1.8929   -0.8925 H         1 <0>         0.0956
     31 H6         -0.6665   -0.1605    0.5898 H         1 <0>         0.4137
     32 H7         -2.1944   -2.5890    0.0249 H         1 <0>         0.1086
     33 H8          1.6221   -2.6327    1.6473 H         1 <0>         0.0980
     34 H9          1.0033   -1.2288    0.7322 H         1 <0>         0.0772
     35 H10         0.4310   -0.0586    2.6728 H         1 <0>         0.0744
     36 H11         0.0203   -2.6946    4.1889 H         1 <0>         0.0906
     37 H12        -0.8324   -1.1324    4.4191 H         1 <0>         0.0772
     38 H13        -3.2112   -1.0992    3.6493 H         1 <0>         0.4374
     39 H14        -4.5790   -1.6961    4.4212 H         1 <0>         0.4352
     40 H15        -3.7996   -5.1081    3.9268 H         1 <0>         0.4365
     41 H16        -4.9239   -4.0466    4.5839 H         1 <0>         0.4360
     42 H17        -0.7904   -5.6201   -0.3749 H         1 <0>         0.0746
     43 H18        -1.9747   -4.3126   -0.1197 H         1 <0>         0.0732
     44 H19        -2.8973   -6.2323   -1.4672 H         1 <0>         0.0753
     45 H20        -2.9275   -4.6834   -2.3449 H         1 <0>         0.0696
     46 H21        -0.7651   -6.8222   -2.6069 H         1 <0>         0.0665
     47 H22        -2.0730   -6.5310   -3.7781 H         1 <0>         0.0679
     48 H23         0.0046   -5.4045   -4.5019 H         1 <0>         0.0787
     49 H24        -1.2482   -4.2044   -4.1011 H         1 <0>         0.0667
     50 H25         0.8631   -3.4982   -3.1017 H         1 <0>         0.0943
     51 H26         1.0621   -5.0885   -2.3215 H         1 <0>         0.0711
     52 H27        -1.9223   -4.2508    2.8678 H         1 <0>         0.4365
@<TRIPOS>BOND
     1    1    2 1
     2    1   28 1
     3    1   29 1
     4    1   30 1
     5    2    3 2
     6    2    4 am
     7    4    5 1
     8    4   31 1
     9    5    6 1
    10    5   20 1
    11    5   32 1
    12    6    7 1
    13    6   11 1
    14    6    8 1
    15    8    9 1
    16    8   33 1
    17    8   34 1
    18    9   10 1
    19    9   17 1
    20    9   35 1
    21   10   11 1
    22   10   36 1
    23   10   37 1
    24   11   12 1
    25   11   13 1
    26   13   14 2
    27   13   52 1
    28   14   15 1
    29   14   16 1
    30   15   38 1
    31   15   39 1
    32   16   40 1
    33   16   41 1
    34   17   18 2
    35   17   19 1
    36   20   21 2
    37   20   22 am
    38   22   27 1
    39   22   23 1
    40   23   24 1
    41   23   42 1
    42   23   43 1
    43   24   25 1
    44   24   44 1
    45   24   45 1
    46   25   26 1
    47   25   46 1
    48   25   47 1
    49   26   27 1
    50   26   48 1
    51   26   49 1
    52   27   50 1
    53   27   51 1
@<TRIPOS>MOLECULE
CHEMBL57800__2
   52    53     0     0     0
SMALL
USER_CHARGES

@<TRIPOS>ATOM
      1 C1          0.4141    1.1423   -1.1567 C.3       1 <0>        -0.1748
      2 C2          0.2386   -0.2833   -0.7006 C.2       1 <0>         0.4969
      3 O1          1.2101   -0.9882   -0.5267 O.2       1 <0>        -0.4889
      4 N1         -0.9978   -0.7748   -0.4861 N.am      1 <0>        -0.7306
      5 C3         -1.1684   -2.1607   -0.0428 C.3       1 <0>         0.1332
      6 C4         -0.5702   -3.1070   -1.0856 C.3       1 <0>        -0.1079
      7 H1          0.5055   -2.9517   -1.1679 H         1 <0>         0.1152
      8 C5         -0.8788   -4.5804   -0.7209 C.3       1 <0>        -0.0901
      9 C6         -0.7731   -5.3003   -2.0882 C.3       1 <0>        -0.1566
     10 C7         -1.3829   -4.2992   -3.0911 C.3       1 <0>        -0.1132
     11 C8         -1.2515   -2.9022   -2.4544 C.3       1 <0>         0.1186
     12 H2         -2.2385   -2.4603   -2.3178 H         1 <0>         0.1031
     13 N2         -0.4265   -2.0371   -3.3012 N.pl3     1 <0>        -0.6376
     14 C9         -0.9776   -1.3445   -4.2581 C.cat     1 <0>         0.7326
     15 N3         -2.3331   -1.4260   -4.4728 N.pl3     1 <0>        -0.8142
     16 N4         -0.2033   -0.5326   -5.0527 N.pl3     1 <0>        -0.8218
     17 C10        -1.5669   -6.5812   -2.0727 C.2       1 <0>         0.4970
     18 O2         -2.0670   -7.0010   -3.1024 O.co2     1 <0>        -0.6941
     19 O3         -1.7091   -7.1977   -1.0305 O.co2     1 <0>        -0.6815
     20 C11        -0.4650   -2.3566    1.2755 C.2       1 <0>         0.5044
     21 O4          0.6173   -1.8438    1.4674 O.2       1 <0>        -0.5038
     22 N5         -1.0385   -3.1015    2.2412 N.am      1 <0>        -0.6068
     23 C12        -2.2983   -3.8139    1.9882 C.3       1 <0>         0.1001
     24 C13        -2.1093   -5.2918    2.3445 C.3       1 <0>        -0.1408
     25 C14        -1.6016   -5.4044    3.7838 C.3       1 <0>        -0.1189
     26 C15        -0.2478   -4.7012    3.9056 C.3       1 <0>        -0.1360
     27 C16        -0.4126   -3.2216    3.5651 C.3       1 <0>         0.1137
     28 H3          1.4759    1.3575   -1.2760 H         1 <0>         0.0946
     29 H4         -0.0947    1.2840   -2.1102 H         1 <0>         0.0766
     30 H5         -0.0121    1.8165   -0.4138 H         1 <0>         0.0895
     31 H6         -1.7748   -0.2110   -0.6253 H         1 <0>         0.4022
     32 H7         -2.2303   -2.3759    0.0765 H         1 <0>         0.1126
     33 H8         -0.1382   -4.9685   -0.0217 H         1 <0>         0.0786
     34 H9         -1.8847   -4.6745   -0.3116 H         1 <0>         0.0828
     35 H10         0.2698   -5.4997   -2.3347 H         1 <0>         0.0740
     36 H11        -0.8337   -4.3319   -4.0320 H         1 <0>         0.0717
     37 H12        -2.4331   -4.5356   -3.2627 H         1 <0>         0.0933
     38 H13        -2.8794   -1.9988   -3.9121 H         1 <0>         0.4376
     39 H14        -2.7432   -0.9106   -5.1849 H         1 <0>         0.4338
     40 H15         0.7531   -0.4752   -4.9013 H         1 <0>         0.4357
     41 H16        -0.6134   -0.0173   -5.7649 H         1 <0>         0.4347
     42 H17        -3.0894   -3.3876    2.6051 H         1 <0>         0.0692
     43 H18        -2.5643   -3.7231    0.9351 H         1 <0>         0.0848
     44 H19        -3.0623   -5.8129    2.2530 H         1 <0>         0.0803
     45 H20        -1.3827   -5.7394    1.6664 H         1 <0>         0.0855
     46 H21        -2.3169   -4.9347    4.4590 H         1 <0>         0.0609
     47 H22        -1.4897   -6.4560    4.0482 H         1 <0>         0.0688
     48 H23         0.1241   -4.8020    4.9252 H         1 <0>         0.0743
     49 H24         0.4612   -5.1544    3.2128 H         1 <0>         0.0686
     50 H25         0.5652   -2.7400    3.5520 H         1 <0>         0.0898
     51 H26        -1.0465   -2.7459    4.3134 H         1 <0>         0.0658
     52 H27         0.5299   -1.9796   -3.1497 H         1 <0>         0.4370
@<TRIPOS>BOND
     1    1    2 1
     2    1   28 1
     3    1   29 1
     4    1   30 1
     5    2    3 2
     6    2    4 am
     7    4    5 1
     8    4   31 1
     9    5    6 1
    10    5   20 1
    11    5   32 1
    12    6    7 1
    13    6   11 1
    14    6    8 1
    15    8    9 1
    16    8   33 1
    17    8   34 1
    18    9   10 1
    19    9   17 1
    20    9   35 1
    21   10   11 1
    22   10   36 1
    23   10   37 1
    24   11   12 1
    25   11   13 1
    26   13   14 2
    27   13   52 1
    28   14   15 1
    29   14   16 1
    30   15   38 1
    31   15   39 1
    32   16   40 1
    33   16   41 1
    34   17   18 2
    35   17   19 1
    36   20   21 2
    37   20   22 am
    38   22   27 1
    39   22   23 1
    40   23   24 1
    41   23   42 1
    42   23   43 1
    43   24   25 1
    44   24   44 1
    45   24   45 1
    46   25   26 1
    47   25   46 1
    48   25   47 1
    49   26   27 1
    50   26   48 1
    51   26   49 1
    52   27   50 1
    53   27   51 1
@<TRIPOS>MOLECULE
CHEMBL57800__3
   52    53     0     0     0
SMALL
USER_CHARGES

@<TRIPOS>ATOM
      1 C1          0.1229    1.4018   -0.6586 C.3       1 <0>        -0.1746
      2 C2          0.0783   -0.0862   -0.4245 C.2       1 <0>         0.4933
      3 O1          1.1067   -0.7290   -0.4102 O.2       1 <0>        -0.4839
      4 N1         -1.1045   -0.7028   -0.2310 N.am      1 <0>        -0.7315
      5 C3         -1.1478   -2.1494   -0.0034 C.3       1 <0>         0.1321
      6 C4         -0.5464   -2.8737   -1.2094 C.3       1 <0>        -0.0999
      7 H1          0.5029   -2.6014   -1.3230 H         1 <0>         0.1146
      8 C5         -0.6795   -4.3961   -1.0302 C.3       1 <0>        -0.1141
      9 C6         -1.5384   -4.9049   -2.2063 C.3       1 <0>        -0.1531
     10 C7         -1.3565   -3.8270   -3.3036 C.3       1 <0>        -0.1133
     11 C8         -1.3282   -2.5094   -2.4884 C.3       1 <0>         0.1178
     12 H2         -2.3412   -2.1934   -2.2393 H         1 <0>         0.1070
     13 N2         -0.6307   -1.4588   -3.2340 N.pl3     1 <0>        -0.6359
     14 C9         -1.2975   -0.6753   -4.0343 C.cat     1 <0>         0.7330
     15 N3         -2.6554   -0.8349   -4.1787 N.pl3     1 <0>        -0.8160
     16 N4         -0.6429    0.3106   -4.7340 N.pl3     1 <0>        -0.8211
     17 C10        -1.0331   -6.2400   -2.6895 C.2       1 <0>         0.4961
     18 O2         -1.8235   -7.1116   -3.0089 O.co2     1 <0>        -0.6890
     19 O3          0.1660   -6.4484   -2.7610 O.co2     1 <0>        -0.6853
     20 C11        -0.3545   -2.4874    1.2325 C.2       1 <0>         0.5036
     21 O4          0.7378   -1.9901    1.4068 O.2       1 <0>        -0.4973
     22 N5         -0.8589   -3.3424    2.1441 N.am      1 <0>        -0.6103
     23 C12        -2.1220   -4.0485    1.8897 C.3       1 <0>         0.0996
     24 C13        -1.8921   -5.5520    2.0731 C.3       1 <0>        -0.1436
     25 C14        -1.2973   -5.8076    3.4598 C.3       1 <0>        -0.1187
     26 C15         0.0518   -5.0947    3.5775 C.3       1 <0>        -0.1377
     27 C16        -0.1531   -3.5907    3.4086 C.3       1 <0>         0.1137
     28 H3          1.1574    1.7176   -0.7933 H         1 <0>         0.0952
     29 H4         -0.4509    1.6463   -1.5525 H         1 <0>         0.0767
     30 H5         -0.3056    1.9178    0.2006 H         1 <0>         0.0893
     31 H6         -1.9270   -0.1888   -0.2424 H         1 <0>         0.4020
     32 H7         -2.1824   -2.4651    0.1313 H         1 <0>         0.1119
     33 H8          0.3052   -4.8628   -1.0576 H         1 <0>         0.0942
     34 H9         -1.1726   -4.6190   -0.0839 H         1 <0>         0.0746
     35 H10        -2.5853   -4.9762   -1.9113 H         1 <0>         0.0741
     36 H11        -0.4160   -3.9719   -3.8352 H         1 <0>         0.0880
     37 H12        -2.1982   -3.8350   -3.9962 H         1 <0>         0.0751
     38 H13        -3.1172   -1.5305   -3.6850 H         1 <0>         0.4368
     39 H14        -3.1516   -0.2518   -4.7743 H         1 <0>         0.4338
     40 H15         0.3151    0.4231   -4.6322 H         1 <0>         0.4363
     41 H16        -1.1392    0.8937   -5.3296 H         1 <0>         0.4348
     42 H17        -2.8802   -3.7063    2.5940 H         1 <0>         0.0722
     43 H18        -2.4520   -3.8511    0.8698 H         1 <0>         0.0854
     44 H19        -2.8417   -6.0791    1.9817 H         1 <0>         0.0809
     45 H20        -1.2016   -5.9102    1.3095 H         1 <0>         0.0783
     46 H21        -1.9769   -5.4269    4.2222 H         1 <0>         0.0632
     47 H22        -1.1556   -6.8789    3.6023 H         1 <0>         0.0696
     48 H23         0.4856   -5.2964    4.5569 H         1 <0>         0.0761
     49 H24         0.7239   -5.4572    2.7997 H         1 <0>         0.0702
     50 H25         0.8156   -3.0913    3.3905 H         1 <0>         0.0912
     51 H26        -0.7471   -3.2103    4.2395 H         1 <0>         0.0662
     52 H27         0.3273   -1.3463   -3.1322 H         1 <0>         0.4385
@<TRIPOS>BOND
     1    1    2 1
     2    1   28 1
     3    1   29 1
     4    1   30 1
     5    2    3 2
     6    2    4 am
     7    4    5 1
     8    4   31 1
     9    5    6 1
    10    5   20 1
    11    5   32 1
    12    6    7 1
    13    6   11 1
    14    6    8 1
    15    8    9 1
    16    8   33 1
    17    8   34 1
    18    9   10 1
    19    9   17 1
    20    9   35 1
    21   10   11 1
    22   10   36 1
    23   10   37 1
    24   11   12 1
    25   11   13 1
    26   13   14 2
    27   13   52 1
    28   14   15 1
    29   14   16 1
    30   15   38 1
    31   15   39 1
    32   16   40 1
    33   16   41 1
    34   17   18 2
    35   17   19 1
    36   20   21 2
    37   20   22 am
    38   22   27 1
    39   22   23 1
    40   23   24 1
    41   23   42 1
    42   23   43 1
    43   24   25 1
    44   24   44 1
    45   24   45 1
    46   25   26 1
    47   25   46 1
    48   25   47 1
    49   26   27 1
    50   26   48 1
    51   26   49 1
    52   27   50 1
    53   27   51 1
@<TRIPOS>MOLECULE
CHEMBL350474
   59    61     0     0     0
SMALL
USER_CHARGES

@<TRIPOS>ATOM
      1 C1          0.6364    1.4350   -0.1918 C.3       1 <0>        -0.1540
      2 C2          0.4283   -0.0801   -0.1493 C.3       1 <0>        -0.1496
      3 C3         -1.0560   -0.3853    0.0619 C.3       1 <0>         0.0970
      4 N1         -1.2360   -1.8268    0.2515 N.am      1 <0>        -0.6051
      5 C4         -1.2296   -2.3944    1.6021 C.3       1 <0>         0.1265
      6 C5         -2.6547   -2.4024    2.1587 C.3       1 <0>        -0.0979
      7 C6         -2.6481   -2.9863    3.5480 C.ar      1 <0>        -0.0816
      8 C7         -2.8123   -4.3472    3.7265 C.ar      1 <0>        -0.1114
      9 C8         -2.8063   -4.8827    5.0009 C.ar      1 <0>        -0.1169
     10 C9         -2.6356   -4.0575    6.0967 C.ar      1 <0>        -0.1225
     11 C10        -2.4705   -2.6967    5.9180 C.ar      1 <0>        -0.1196
     12 C11        -2.4723   -2.1617    4.6434 C.ar      1 <0>        -0.1170
     13 C12        -1.4075   -2.6308   -0.8165 C.2       1 <0>         0.5276
     14 O1         -1.4963   -3.8307   -0.6643 O.2       1 <0>        -0.4827
     15 C13        -1.4889   -2.0387   -2.2000 C.3       1 <0>         0.0533
     16 H1         -1.4674   -0.9508   -2.1357 H         1 <0>         0.1018
     17 C14        -0.3047   -2.5304   -3.0434 C.3       1 <0>         0.0975
     18 H2         -0.3615   -3.6125   -3.1610 H         1 <0>         0.1372
     19 C15        -0.3816   -1.8566   -4.4174 C.3       1 <0>         0.0882
     20 H3         -0.1050   -0.8064   -4.3232 H         1 <0>         0.1442
     21 C16        -1.7856   -1.9598   -4.9484 C.2       1 <0>        -0.3728
     22 C17        -2.8196   -2.2388   -4.1661 C.2       1 <0>         0.1414
     23 O2         -2.6995   -2.4604   -2.8342 O.3       1 <0>        -0.2581
     24 C18        -4.1586   -2.3109   -4.7715 C.2       1 <0>         0.5227
     25 O3         -4.2989   -2.1154   -5.9712 O.co2     1 <0>        -0.6483
     26 O4         -5.1318   -2.5663   -4.0753 O.co2     1 <0>        -0.6336
     27 N2          0.5426   -2.5252   -5.3432 N.4       1 <0>        -0.6266
     28 N3          0.9537   -2.1704   -2.3854 N.am      1 <0>        -0.7421
     29 C19         1.5727   -3.0588   -1.5829 C.2       1 <0>         0.5397
     30 O5          1.1406   -4.1874   -1.4805 O.2       1 <0>        -0.4891
     31 C20         2.8019   -2.6498   -0.8128 C.3       1 <0>        -0.2001
     32 C21         4.1433   -3.2330   -1.2616 C.3       1 <0>        -0.1521
     33 C22         3.4929   -3.7197    0.0350 C.3       1 <0>        -0.1413
     34 H4          1.7024    1.6538   -0.2540 H         1 <0>         0.0601
     35 H5          0.1295    1.8471   -1.0643 H         1 <0>         0.0575
     36 H6          0.2256    1.8837    0.7127 H         1 <0>         0.0618
     37 H7          0.7591   -0.5189   -1.0907 H         1 <0>         0.0607
     38 H8          1.0067   -0.5034    0.6719 H         1 <0>         0.0712
     39 H9         -1.4139    0.1447    0.9445 H         1 <0>         0.0907
     40 H10        -1.6216   -0.0603   -0.8114 H         1 <0>         0.0810
     41 H11        -0.8481   -3.4148    1.5655 H         1 <0>         0.0885
     42 H12        -0.5910   -1.7906    2.2469 H         1 <0>         0.0801
     43 H13        -3.0362   -1.3820    2.1952 H         1 <0>         0.0749
     44 H14        -3.2933   -3.0062    1.5138 H         1 <0>         0.0803
     45 H15        -2.9457   -4.9919    2.8704 H         1 <0>         0.1234
     46 H16        -2.9353   -5.9459    5.1405 H         1 <0>         0.1226
     47 H17        -2.6316   -4.4758    7.0923 H         1 <0>         0.1214
     48 H18        -2.3375   -2.0519    6.7742 H         1 <0>         0.1216
     49 H19        -2.3395   -1.0990    4.5036 H         1 <0>         0.1198
     50 H20        -1.9574   -1.8009   -6.0027 H         1 <0>         0.1661
     51 H21         0.2865   -3.4972   -5.4305 H         1 <0>         0.4372
     52 H22         0.4919   -2.0814   -6.2479 H         1 <0>         0.4401
     53 H23         1.3414   -1.2926   -2.5273 H         1 <0>         0.4067
     54 H24         2.7991   -1.6290   -0.4306 H         1 <0>         0.1278
     55 H25         4.1367   -3.9125   -2.1138 H         1 <0>         0.0987
     56 H26         5.0234   -2.5958   -1.1748 H         1 <0>         0.1083
     57 H27         3.9451   -3.4027    0.9747 H         1 <0>         0.1078
     58 H28         3.0585   -4.7194    0.0357 H         1 <0>         0.1106
     59 H29         1.4840   -2.4561   -4.9869 H         1 <0>         0.4264
@<TRIPOS>BOND
     1    1    2 1
     2    1   34 1
     3    1   35 1
     4    1   36 1
     5    2    3 1
     6    2   37 1
     7    2   38 1
     8    3    4 1
     9    3   39 1
    10    3   40 1
    11    4    5 1
    12    4   13 am
    13    5    6 1
    14    5   41 1
    15    5   42 1
    16    6    7 1
    17    6   43 1
    18    6   44 1
    19    7   12 ar
    20    7    8 ar
    21    8    9 ar
    22    8   45 1
    23    9   10 ar
    24    9   46 1
    25   10   11 ar
    26   10   47 1
    27   11   12 ar
    28   11   48 1
    29   12   49 1
    30   13   14 2
    31   13   15 1
    32   15   16 1
    33   15   23 1
    34   15   17 1
    35   17   18 1
    36   17   19 1
    37   17   28 1
    38   19   20 1
    39   19   21 1
    40   19   27 1
    41   21   22 2
    42   21   50 1
    43   22   23 1
    44   22   24 1
    45   24   25 2
    46   24   26 1
    47   27   51 1
    48   27   52 1
    49   27   59 1
    50   28   29 am
    51   28   53 1
    52   29   30 2
    53   29   31 1
    54   31   33 1
    55   31   32 1
    56   31   54 1
    57   32   33 1
    58   32   55 1
    59   32   56 1
    60   33   57 1
    61   33   58 1
@<TRIPOS>MOLECULE
CHEMBL350474__1
   58    60     0     0     0
SMALL
USER_CHARGES

@<TRIPOS>ATOM
      1 C1          0.7592    1.9823    0.7210 C.3       1 <0>        -0.1326
      2 C2          0.8546    0.4738    0.4843 C.3       1 <0>        -0.1326
      3 C3          1.2913   -0.2187    1.7768 C.3       1 <0>         0.1080
      4 N1          1.5056   -1.6447    1.5186 N.am      1 <0>        -0.5936
      5 C4          2.8059   -2.1139    1.0335 C.3       1 <0>         0.1210
      6 C5          3.7013   -2.4573    2.2257 C.3       1 <0>        -0.0948
      7 C6          5.0388   -2.9400    1.7267 C.ar      1 <0>        -0.0746
      8 C7          5.2393   -4.2849    1.4776 C.ar      1 <0>        -0.1130
      9 C8          6.4662   -4.7276    1.0199 C.ar      1 <0>        -0.1194
     10 C9          7.4926   -3.8255    0.8109 C.ar      1 <0>        -0.1268
     11 C10         7.2918   -2.4805    1.0591 C.ar      1 <0>        -0.1193
     12 C11         6.0636   -2.0372    1.5127 C.ar      1 <0>        -0.1156
     13 C12         0.5065   -2.5249    1.7272 C.2       1 <0>         0.5420
     14 O1          0.6632   -3.6961    1.4539 O.2       1 <0>        -0.5395
     15 C13        -0.8054   -2.0538    2.2999 C.3       1 <0>         0.0525
     16 H1         -1.5858   -2.7816    2.0774 H         1 <0>         0.0999
     17 C14        -0.6750   -1.8839    3.8196 C.3       1 <0>         0.1259
     18 H2          0.0603   -1.1103    4.0411 H         1 <0>         0.1164
     19 C15        -2.0421   -1.4717    4.3756 C.3       1 <0>         0.1304
     20 H3         -2.7167   -2.3275    4.3526 H         1 <0>         0.0374
     21 C16        -2.6112   -0.3616    3.5343 C.2       1 <0>        -0.2510
     22 C17        -2.1603   -0.0941    2.3161 C.2       1 <0>         0.0347
     23 O2         -1.1518   -0.7872    1.7330 O.3       1 <0>        -0.2716
     24 C18        -2.7835    1.0052    1.5626 C.2       1 <0>         0.5364
     25 O3         -3.6963    1.6489    2.0622 O.co2     1 <0>        -0.6694
     26 O4         -2.3891    1.2757    0.4364 O.co2     1 <0>        -0.6580
     27 N2         -1.8876   -1.0068    5.7605 N.3       1 <0>        -0.8260
     28 N3         -0.2564   -3.1509    4.4243 N.am      1 <0>        -0.7211
     29 C19         0.4828   -3.1480    5.5512 C.2       1 <0>         0.5400
     30 O5          0.7247   -2.1019    6.1151 O.2       1 <0>        -0.5178
     31 C20         1.0089   -4.4447    6.1106 C.3       1 <0>        -0.1943
     32 C21         0.3728   -4.9675    7.4002 C.3       1 <0>        -0.1546
     33 C22         1.7863   -4.3825    7.4269 C.3       1 <0>        -0.1458
     34 H4          1.7107    2.3508    1.1044 H         1 <0>         0.0353
     35 H5          0.5276    2.4836   -0.2188 H         1 <0>         0.0544
     36 H6         -0.0286    2.1873    1.4459 H         1 <0>         0.0616
     37 H7         -0.1193    0.0917    0.1785 H         1 <0>         0.1007
     38 H8          1.5855    0.2745   -0.2995 H         1 <0>         0.0453
     39 H9          2.2187    0.2294    2.1336 H         1 <0>         0.0653
     40 H10         0.5155   -0.0990    2.5331 H         1 <0>         0.0933
     41 H11         2.6649   -3.0020    0.4173 H         1 <0>         0.0849
     42 H12         3.2764   -1.3305    0.4395 H         1 <0>         0.0800
     43 H13         3.8422   -1.5693    2.8418 H         1 <0>         0.0744
     44 H14         3.2308   -3.2408    2.8197 H         1 <0>         0.0741
     45 H15         4.4374   -4.9897    1.6409 H         1 <0>         0.1219
     46 H16         6.6231   -5.7784    0.8260 H         1 <0>         0.1200
     47 H17         8.4513   -4.1715    0.4540 H         1 <0>         0.1189
     48 H18         8.0938   -1.7757    0.8962 H         1 <0>         0.1204
     49 H19         5.9056   -0.9859    1.7031 H         1 <0>         0.1219
     50 H20        -3.4147    0.2377    3.9362 H         1 <0>         0.1370
     51 H21        -2.7760   -0.7291    6.1499 H         1 <0>         0.3403
     52 H22        -1.4471   -1.7124    6.3317 H         1 <0>         0.3391
     53 H23        -0.5113   -3.9919    4.0136 H         1 <0>         0.4034
     54 H24         1.3277   -5.1803    5.3721 H         1 <0>         0.1234
     55 H25        -0.4262   -4.3736    7.8439 H         1 <0>         0.0986
     56 H26         0.2728   -6.0473    7.5102 H         1 <0>         0.1029
     57 H27         2.6162   -5.0775    7.5546 H         1 <0>         0.1013
     58 H28         1.9172   -3.4037    7.8883 H         1 <0>         0.1089
@<TRIPOS>BOND
     1    1    2 1
     2    1   34 1
     3    1   35 1
     4    1   36 1
     5    2    3 1
     6    2   37 1
     7    2   38 1
     8    3    4 1
     9    3   39 1
    10    3   40 1
    11    4    5 1
    12    4   13 am
    13    5    6 1
    14    5   41 1
    15    5   42 1
    16    6    7 1
    17    6   43 1
    18    6   44 1
    19    7   12 ar
    20    7    8 ar
    21    8    9 ar
    22    8   45 1
    23    9   10 ar
    24    9   46 1
    25   10   11 ar
    26   10   47 1
    27   11   12 ar
    28   11   48 1
    29   12   49 1
    30   13   14 2
    31   13   15 1
    32   15   16 1
    33   15   23 1
    34   15   17 1
    35   17   18 1
    36   17   19 1
    37   17   28 1
    38   19   20 1
    39   19   21 1
    40   19   27 1
    41   21   22 2
    42   21   50 1
    43   22   23 1
    44   22   24 1
    45   24   25 2
    46   24   26 1
    47   27   51 1
    48   27   52 1
    49   28   29 am
    50   28   53 1
    51   29   30 2
    52   29   31 1
    53   31   33 1
    54   31   32 1
    55   31   54 1
    56   32   33 1
    57   32   55 1
    58   32   56 1
    59   33   57 1
    60   33   58 1
@<TRIPOS>MOLECULE
CHEMBL423292
   52    53     0     0     0
SMALL
USER_CHARGES

@<TRIPOS>ATOM
      1 C1          0.1084    1.4257    0.1359 C.3       1 <0>        -0.1797
      2 C2          0.0823   -0.0810    0.1314 C.2       1 <0>         0.5018
      3 O1          1.1166   -0.7058    0.2357 O.2       1 <0>        -0.4983
      4 N1         -1.0904   -0.7343    0.0116 N.am      1 <0>        -0.7448
      5 C3         -1.1159   -2.1991    0.0072 C.3       1 <0>         0.1298
      6 H1         -0.2314   -2.5821    0.5162 H         1 <0>         0.1242
      7 C4         -1.1398   -2.7097   -1.4387 C.3       1 <0>         0.0937
      8 H2         -2.0930   -2.4542   -1.9015 H         1 <0>         0.0453
      9 C5         -0.9685   -4.2300   -1.4200 C.3       1 <0>        -0.0841
     10 C6         -1.9295   -4.8463   -0.4455 C.2       1 <0>        -0.0653
     11 C7         -2.5484   -4.1687    0.5009 C.2       1 <0>        -0.2511
     12 C8         -2.3749   -2.6934    0.7224 C.3       1 <0>         0.0627
     13 H3         -3.2444   -2.1668    0.3289 H         1 <0>         0.1350
     14 N2         -2.2555   -2.4233    2.1614 N.4       1 <0>        -0.3909
     15 C9         -3.2859   -3.2358    2.8593 C.3       1 <0>        -0.0110
     16 C10        -3.0889   -2.9205    4.3871 C.3       1 <0>        -0.1408
     17 C11        -4.5067   -2.5993    4.9165 C.3       1 <0>        -0.1348
     18 C12        -5.2627   -1.4423    4.2238 C.3       1 <0>        -0.1284
     19 C13        -4.3327   -0.1868    4.3847 C.3       1 <0>        -0.1280
     20 C14        -4.2322    0.4279    2.9697 C.3       1 <0>        -0.1314
     21 C15        -3.6913   -0.4903    1.8481 C.3       1 <0>        -0.1428
     22 C16        -2.2718   -0.9485    2.3456 C.3       1 <0>        -0.0389
     23 C17        -2.1955   -6.2850   -0.5525 C.2       1 <0>         0.5030
     24 O2         -2.9731   -6.8229    0.2244 O.co2     1 <0>        -0.6767
     25 O3         -1.6399   -6.9472   -1.4188 O.co2     1 <0>        -0.6640
     26 N3         -0.0424   -2.0948   -2.1974 N.3       1 <0>        -0.8314
     27 H4          1.1370    1.7710    0.2407 H         1 <0>         0.1008
     28 H5         -0.3065    1.7991   -0.8004 H         1 <0>         0.0935
     29 H6         -0.4863    1.7970    0.9705 H         1 <0>         0.0888
     30 H7         -1.9176   -0.2347   -0.0719 H         1 <0>         0.4017
     31 H8         -1.1600   -4.6275   -2.4167 H         1 <0>         0.0968
     32 H9          0.0519   -4.4751   -1.1254 H         1 <0>         0.0994
     33 H10        -3.2167   -4.7059    1.1575 H         1 <0>         0.1496
     34 H11        -4.2840   -2.9388    2.5372 H         1 <0>         0.1315
     35 H12        -3.1249   -4.2967    2.6679 H         1 <0>         0.1537
     36 H13        -2.6799   -3.7891    4.9032 H         1 <0>         0.1021
     37 H14        -2.4332   -2.0592    4.5144 H         1 <0>         0.0822
     38 H15        -5.1128   -3.5006    4.8242 H         1 <0>         0.0699
     39 H16        -4.4240   -2.3605    5.9768 H         1 <0>         0.0714
     40 H17        -5.4136   -1.6681    3.1682 H         1 <0>         0.0689
     41 H18        -6.2201   -1.2689    4.7152 H         1 <0>         0.0797
     42 H19        -4.7788    0.5279    5.0763 H         1 <0>         0.0794
     43 H20        -3.3463   -0.4896    4.7361 H         1 <0>         0.0686
     44 H21        -5.2266    0.7658    2.6779 H         1 <0>         0.0727
     45 H22        -3.5864    1.3040    3.0283 H         1 <0>         0.0656
     46 H23        -4.3438   -1.3537    1.7181 H         1 <0>         0.0915
     47 H24        -3.6042    0.0643    0.9138 H         1 <0>         0.0931
     48 H25        -2.1402   -0.6971    3.3981 H         1 <0>         0.1298
     49 H26        -1.4913   -0.4832    1.7435 H         1 <0>         0.1526
     50 H27        -0.0389   -2.4171   -3.1535 H         1 <0>         0.3532
     51 H28        -0.0934   -1.0880   -2.1553 H         1 <0>         0.3362
     52 H29        -1.3508   -2.7583    2.4571 H         1 <0>         0.4141
@<TRIPOS>BOND
     1    1    2 1
     2    1   27 1
     3    1   28 1
     4    1   29 1
     5    2    3 2
     6    2    4 am
     7    4    5 1
     8    4   30 1
     9    5    6 1
    10    5   12 1
    11    5    7 1
    12    7    8 1
    13    7    9 1
    14    7   26 1
    15    9   10 1
    16    9   31 1
    17    9   32 1
    18   10   11 2
    19   10   23 1
    20   11   12 1
    21   11   33 1
    22   12   13 1
    23   12   14 1
    24   14   22 1
    25   14   15 1
    26   14   52 1
    27   15   16 1
    28   15   34 1
    29   15   35 1
    30   16   17 1
    31   16   36 1
    32   16   37 1
    33   17   18 1
    34   17   38 1
    35   17   39 1
    36   18   19 1
    37   18   40 1
    38   18   41 1
    39   19   20 1
    40   19   42 1
    41   19   43 1
    42   20   21 1
    43   20   44 1
    44   20   45 1
    45   21   22 1
    46   21   46 1
    47   21   47 1
    48   22   48 1
    49   22   49 1
    50   23   24 2
    51   23   25 1
    52   26   50 1
    53   26   51 1
@<TRIPOS>MOLECULE
CHEMBL423292__1
   52    53     0     0     0
SMALL
USER_CHARGES

@<TRIPOS>ATOM
      1 C1          1.2597    0.4690    0.2080 C.3       1 <0>        -0.1832
      2 C2          0.7838   -0.9607    0.1832 C.2       1 <0>         0.5037
      3 O1          1.5872   -1.8681    0.2274 O.2       1 <0>        -0.5481
      4 N1         -0.5347   -1.2309    0.1119 N.am      1 <0>        -0.7328
      5 C3         -0.9973   -2.6207    0.0878 C.3       1 <0>         0.1314
      6 H1         -0.3482   -3.2336    0.7132 H         1 <0>         0.1281
      7 C4         -0.9720   -3.1472   -1.3524 C.3       1 <0>         0.0139
      8 H2         -1.7307   -2.6341   -1.9432 H         1 <0>         0.1422
      9 C5         -1.2689   -4.6480   -1.3264 C.3       1 <0>        -0.0813
     10 C6         -2.4961   -4.9178   -0.5053 C.2       1 <0>        -0.1538
     11 C7         -3.0086   -4.0563    0.3508 C.2       1 <0>        -0.1502
     12 C8         -2.4333   -2.6936    0.6111 C.3       1 <0>         0.1291
     13 H3         -3.0412   -1.9445    0.1037 H         1 <0>         0.0633
     14 N2         -2.4396   -2.4252    2.0553 N.3       1 <0>        -0.5721
     15 C9         -3.5650   -3.1307    2.7236 C.3       1 <0>         0.0644
     16 C10        -3.3054   -2.9464    4.2615 C.3       1 <0>        -0.1153
     17 C11        -4.6503   -2.4587    4.8463 C.3       1 <0>        -0.1304
     18 C12        -5.2350   -1.1570    4.2510 C.3       1 <0>        -0.1228
     19 C13        -4.1251   -0.0670    4.4725 C.3       1 <0>        -0.1237
     20 C14        -3.9545    0.6234    3.0995 C.3       1 <0>        -0.1209
     21 C15        -3.5742   -0.2849    1.9084 C.3       1 <0>        -0.1624
     22 C16        -2.2295   -0.9789    2.3294 C.3       1 <0>         0.0556
     23 C17        -3.1637   -6.2143   -0.6651 C.2       1 <0>         0.5113
     24 O2         -4.1669   -6.4704   -0.0127 O.co2     1 <0>        -0.6739
     25 O3         -2.7175   -7.0396   -1.4507 O.co2     1 <0>        -0.6855
     26 N3          0.3535   -2.9125   -1.9404 N.4       1 <0>        -0.6278
     27 H4          2.3479    0.4887    0.2670 H         1 <0>         0.1022
     28 H5          0.9359    0.9755   -0.7012 H         1 <0>         0.0946
     29 H6          0.8395    0.9768    1.0761 H         1 <0>         0.0990
     30 H7         -1.1773   -0.5052    0.0765 H         1 <0>         0.4134
     31 H8         -1.4302   -5.0021   -2.3445 H         1 <0>         0.1074
     32 H9         -0.4203   -5.1767   -0.8923 H         1 <0>         0.0945
     33 H10        -3.8917   -4.3481    0.8996 H         1 <0>         0.1446
     34 H11        -4.5158   -2.6774    2.4431 H         1 <0>         0.0514
     35 H12        -3.5569   -4.1889    2.4624 H         1 <0>         0.1000
     36 H13        -3.0198   -3.8966    4.7128 H         1 <0>         0.0725
     37 H14        -2.5288   -2.1996    4.4266 H         1 <0>         0.0742
     38 H15        -5.3850   -3.2519    4.7087 H         1 <0>         0.0560
     39 H16        -4.5174   -2.3092    5.9178 H         1 <0>         0.0538
     40 H17        -5.4331   -1.2838    3.1867 H         1 <0>         0.0690
     41 H18        -6.1485   -0.8782    4.7763 H         1 <0>         0.0655
     42 H19        -4.4493    0.6558    5.2212 H         1 <0>         0.0658
     43 H20        -3.1901   -0.5364    4.7782 H         1 <0>         0.0718
     44 H21        -4.8913    1.1245    2.8555 H         1 <0>         0.0525
     45 H22        -3.1838    1.3876    3.2001 H         1 <0>         0.0509
     46 H23        -4.3491   -1.0331    1.7415 H         1 <0>         0.0771
     47 H24        -3.4251    0.3135    1.0096 H         1 <0>         0.0616
     48 H25        -2.0369   -0.8187    3.3902 H         1 <0>         0.0896
     49 H26        -1.4026   -0.5964    1.7310 H         1 <0>         0.0816
     50 H27         1.0532   -3.3937   -1.3954 H         1 <0>         0.4391
     51 H28         0.3675   -3.2598   -2.8876 H         1 <0>         0.4332
     52 H29         0.5503   -1.9229   -1.9420 H         1 <0>         0.4199
@<TRIPOS>BOND
     1    1    2 1
     2    1   27 1
     3    1   28 1
     4    1   29 1
     5    2    3 2
     6    2    4 am
     7    4    5 1
     8    4   30 1
     9    5    6 1
    10    5   12 1
    11    5    7 1
    12    7    8 1
    13    7    9 1
    14    7   26 1
    15    9   10 1
    16    9   31 1
    17    9   32 1
    18   10   11 2
    19   10   23 1
    20   11   12 1
    21   11   33 1
    22   12   13 1
    23   12   14 1
    24   14   22 1
    25   14   15 1
    26   15   16 1
    27   15   34 1
    28   15   35 1
    29   16   17 1
    30   16   36 1
    31   16   37 1
    32   17   18 1
    33   17   38 1
    34   17   39 1
    35   18   19 1
    36   18   40 1
    37   18   41 1
    38   19   20 1
    39   19   42 1
    40   19   43 1
    41   20   21 1
    42   20   44 1
    43   20   45 1
    44   21   22 1
    45   21   46 1
    46   21   47 1
    47   22   48 1
    48   22   49 1
    49   23   24 2
    50   23   25 1
    51   26   50 1
    52   26   51 1
    53   26   52 1
@<TRIPOS>MOLECULE
CHEMBL362993
   46    47     0     0     0
SMALL
USER_CHARGES

@<TRIPOS>ATOM
      1 C1         -0.0187    1.5258    0.0104 C.3       1 <0>        -0.1513
      2 C2          0.0021   -0.0041    0.0020 C.3       1 <0>        -0.0889
      3 C3          0.7421   -0.5109    1.2415 C.3       1 <0>        -0.1472
      4 C4         -1.4333   -0.5336    0.0129 C.3       1 <0>        -0.1416
      5 C5         -1.4157   -2.0577   -0.1212 C.3       1 <0>         0.1295
      6 H1         -0.7891   -2.4841    0.6622 H         1 <0>         0.1153
      7 C6         -2.8406   -2.5981    0.0146 C.3       1 <0>         0.0247
      8 H2         -3.4765   -2.1664   -0.7583 H         1 <0>         0.1389
      9 C7         -2.8334   -4.1331   -0.1088 C.3       1 <0>        -0.0175
     10 H3         -1.8192   -4.4942   -0.2792 H         1 <0>         0.1221
     11 C8         -3.3662   -4.6497    1.2474 C.3       1 <0>        -0.1116
     12 C9         -3.0957   -3.4596    2.2019 C.3       1 <0>        -0.0437
     13 H4         -2.0567   -3.4591    2.5314 H         1 <0>         0.1373
     14 N1         -3.3790   -2.2687    1.3522 N.4       1 <0>        -0.4896
     15 C10        -4.0272   -3.5048    3.3856 C.2       1 <0>         0.4975
     16 O1         -3.8797   -4.3568    4.2452 O.co2     1 <0>        -0.6324
     17 O2         -4.9284   -2.6895    3.4837 O.co2     1 <0>        -0.6702
     18 C11        -3.7393   -4.5719   -1.2304 C.2       1 <0>         0.0676
     19 C12        -5.1204   -4.7731   -1.1382 C.2       1 <0>        -0.2688
     20 C13        -5.5668   -5.1612   -2.3552 C.2       1 <0>         0.0719
     21 N2         -4.5058   -5.2041   -3.1880 N.pl3     1 <0>        -0.4679
     22 H5         -4.5262   -5.4505   -4.1260 H         1 <0>         0.4441
     23 N3         -3.3706   -4.8249   -2.4600 N.2       1 <0>        -0.2802
     24 N4         -0.8765   -2.4263   -1.4325 N.am      1 <0>        -0.7205
     25 C14         0.4560   -2.5245   -1.6099 C.2       1 <0>         0.5157
     26 O3          1.2086   -2.3077   -0.6839 O.2       1 <0>        -0.5230
     27 C15         1.0106   -2.9037   -2.9588 C.3       1 <0>        -0.1722
     28 H6          1.0039    1.9031    0.0027 H         1 <0>         0.0583
     29 H7         -0.5459    1.8868   -0.8726 H         1 <0>         0.0518
     30 H8         -0.5289    1.8773    0.9072 H         1 <0>         0.0548
     31 H9          0.5123   -0.3556   -0.8948 H         1 <0>         0.0808
     32 H10         0.7568   -1.6008    1.2356 H         1 <0>         0.0718
     33 H11         1.7647   -0.1336    1.2338 H         1 <0>         0.0554
     34 H12         0.2319   -0.1594    2.1383 H         1 <0>         0.0446
     35 H13        -1.9156   -0.2570    0.9504 H         1 <0>         0.0685
     36 H14        -1.9862   -0.1019   -0.8214 H         1 <0>         0.0800
     37 H15        -4.4338   -4.8609    1.1872 H         1 <0>         0.1030
     38 H16        -2.8144   -5.5336    1.5671 H         1 <0>         0.1166
     39 H17        -2.9136   -1.4542    1.7237 H         1 <0>         0.4217
     40 H18        -5.7238   -4.6424   -0.2520 H         1 <0>         0.1540
     41 H19        -6.5890   -5.3952   -2.6136 H         1 <0>         0.1828
     42 H20        -1.4784   -2.5997   -2.1731 H         1 <0>         0.4078
     43 H21         0.1896   -3.0580   -3.6590 H         1 <0>         0.0770
     44 H22         1.6547   -2.1041   -3.3247 H         1 <0>         0.0975
     45 H23         1.5887   -3.8233   -2.8685 H         1 <0>         0.0992
     46 H24        -4.3736   -2.1079    1.2969 H         1 <0>         0.4366
@<TRIPOS>BOND
     1    1    2 1
     2    1   28 1
     3    1   29 1
     4    1   30 1
     5    2    3 1
     6    2    4 1
     7    2   31 1
     8    3   32 1
     9    3   33 1
    10    3   34 1
    11    4    5 1
    12    4   35 1
    13    4   36 1
    14    5    6 1
    15    5    7 1
    16    5   24 1
    17    7    8 1
    18    7   14 1
    19    7    9 1
    20    9   10 1
    21    9   11 1
    22    9   18 1
    23   11   12 1
    24   11   37 1
    25   11   38 1
    26   12   13 1
    27   12   14 1
    28   12   15 1
    29   14   39 1
    30   14   46 1
    31   15   16 2
    32   15   17 1
    33   18   23 2
    34   18   19 1
    35   19   20 2
    36   19   40 1
    37   20   21 1
    38   20   41 1
    39   21   22 1
    40   21   23 1
    41   24   25 am
    42   24   42 1
    43   25   26 2
    44   25   27 1
    45   27   43 1
    46   27   44 1
    47   27   45 1
@<TRIPOS>MOLECULE
CHEMBL362993__1
   46    47     0     0     0
SMALL
USER_CHARGES

@<TRIPOS>ATOM
      1 C1         -0.0187    1.5258    0.0104 C.3       1 <0>        -0.1519
      2 C2          0.0021   -0.0041    0.0020 C.3       1 <0>        -0.0884
      3 C3          0.7421   -0.5109    1.2415 C.3       1 <0>        -0.1478
      4 C4         -1.4333   -0.5336    0.0129 C.3       1 <0>        -0.1428
      5 C5         -1.4157   -2.0577   -0.1212 C.3       1 <0>         0.1315
      6 H1         -0.7891   -2.4841    0.6622 H         1 <0>         0.1182
      7 C6         -2.8406   -2.5981    0.0146 C.3       1 <0>         0.0123
      8 H2         -3.4765   -2.1664   -0.7583 H         1 <0>         0.1326
      9 C7         -2.8334   -4.1331   -0.1088 C.3       1 <0>        -0.0344
     10 H3         -1.8192   -4.4942   -0.2792 H         1 <0>         0.1355
     11 C8         -3.3662   -4.6497    1.2474 C.3       1 <0>        -0.1108
     12 C9         -3.0957   -3.4596    2.2019 C.3       1 <0>        -0.0443
     13 H4         -2.0567   -3.4591    2.5314 H         1 <0>         0.1408
     14 N1         -3.3790   -2.2687    1.3522 N.4       1 <0>        -0.4917
     15 C10        -4.0272   -3.5048    3.3856 C.2       1 <0>         0.4964
     16 O1         -3.8797   -4.3568    4.2452 O.co2     1 <0>        -0.6288
     17 O2         -4.9284   -2.6895    3.4837 O.co2     1 <0>        -0.6694
     18 C11        -3.7393   -4.5719   -1.2304 C.2       1 <0>         0.0728
     19 C12        -3.5350   -5.6247   -2.0555 C.2       1 <0>        -0.2412
     20 C13        -4.6075   -5.6840   -2.9513 C.2       1 <0>         0.0551
     21 N2         -5.4264   -4.7020   -2.6740 N.2       1 <0>        -0.2733
     22 H5         -5.3039   -3.2116   -1.1687 H         1 <0>         0.4328
     23 N3         -4.9025   -3.9887   -1.5881 N.pl3     1 <0>        -0.4780
     24 N4         -0.8765   -2.4263   -1.4325 N.am      1 <0>        -0.7234
     25 C14         0.4560   -2.5245   -1.6099 C.2       1 <0>         0.5155
     26 O3          1.2086   -2.3077   -0.6839 O.2       1 <0>        -0.5194
     27 C15         1.0106   -2.9037   -2.9588 C.3       1 <0>        -0.1728
     28 H6          1.0039    1.9031    0.0027 H         1 <0>         0.0593
     29 H7         -0.5459    1.8868   -0.8726 H         1 <0>         0.0523
     30 H8         -0.5289    1.8773    0.9072 H         1 <0>         0.0550
     31 H9          0.5123   -0.3556   -0.8948 H         1 <0>         0.0813
     32 H10         0.7568   -1.6008    1.2356 H         1 <0>         0.0714
     33 H11         1.7647   -0.1336    1.2338 H         1 <0>         0.0567
     34 H12         0.2319   -0.1594    2.1383 H         1 <0>         0.0449
     35 H13        -1.9156   -0.2570    0.9504 H         1 <0>         0.0686
     36 H14        -1.9862   -0.1019   -0.8214 H         1 <0>         0.0806
     37 H15        -4.4338   -4.8609    1.1872 H         1 <0>         0.0964
     38 H16        -2.8144   -5.5336    1.5671 H         1 <0>         0.1225
     39 H17        -2.9136   -1.4542    1.7237 H         1 <0>         0.4246
     40 H18        -2.6924   -6.2998   -2.0275 H         1 <0>         0.1539
     41 H19        -4.7371   -6.4140   -3.7366 H         1 <0>         0.1901
     42 H20        -1.4784   -2.5997   -2.1731 H         1 <0>         0.4062
     43 H21         0.1896   -3.0580   -3.6590 H         1 <0>         0.0774
     44 H22         1.6547   -2.1041   -3.3247 H         1 <0>         0.0990
     45 H23         1.5887   -3.8233   -2.8685 H         1 <0>         0.1009
     46 H24        -4.3736   -2.1079    1.2969 H         1 <0>         0.4341
@<TRIPOS>BOND
     1    1    2 1
     2    1   28 1
     3    1   29 1
     4    1   30 1
     5    2    3 1
     6    2    4 1
     7    2   31 1
     8    3   32 1
     9    3   33 1
    10    3   34 1
    11    4    5 1
    12    4   35 1
    13    4   36 1
    14    5    6 1
    15    5    7 1
    16    5   24 1
    17    7    8 1
    18    7   14 1
    19    7    9 1
    20    9   10 1
    21    9   11 1
    22    9   18 1
    23   11   12 1
    24   11   37 1
    25   11   38 1
    26   12   13 1
    27   12   14 1
    28   12   15 1
    29   14   39 1
    30   14   46 1
    31   15   16 2
    32   15   17 1
    33   18   19 2
    34   18   23 1
    35   19   20 1
    36   19   40 1
    37   20   21 2
    38   20   41 1
    39   21   23 1
    40   22   23 1
    41   24   25 am
    42   24   42 1
    43   25   26 2
    44   25   27 1
    45   27   43 1
    46   27   44 1
    47   27   45 1
@<TRIPOS>MOLECULE
CHEMBL163966
   46    47     0     0     0
SMALL
USER_CHARGES

@<TRIPOS>ATOM
      1 C1         -1.0905    1.8618    1.0349 C.3       1 <0>        -0.1711
      2 C2         -1.4634    0.4699    1.5491 C.3       1 <0>         0.1407
      3 C3         -2.5483    0.5745    2.6498 C.3       1 <0>        -0.1326
      4 C4         -2.3225   -0.7439    3.4361 C.3       1 <0>        -0.1249
      5 C5         -0.7914   -0.9266    3.3721 C.3       1 <0>         0.1176
      6 N1         -0.3079   -0.1571    2.2164 N.am      1 <0>        -0.6073
      7 C6          0.9785   -0.0440    1.8306 C.2       1 <0>         0.5456
      8 O1          1.2739    0.6915    0.9126 O.2       1 <0>        -0.4821
      9 C7          2.0499   -0.8314    2.5400 C.3       1 <0>         0.0555
     10 H1          1.6348   -1.2910    3.4369 H         1 <0>         0.1026
     11 C8          2.5954   -1.9202    1.6061 C.3       1 <0>         0.0961
     12 H2          3.0673   -1.4580    0.7390 H         1 <0>         0.1364
     13 C9          3.6306   -2.7425    2.3807 C.3       1 <0>         0.0884
     14 H3          3.1217   -3.3750    3.1082 H         1 <0>         0.1433
     15 C10         4.5742   -1.8143    3.0962 C.2       1 <0>        -0.3747
     16 C11         4.2854   -0.5377    3.3098 C.2       1 <0>         0.1423
     17 O2          3.1286    0.0367    2.8984 O.3       1 <0>        -0.2585
     18 C12         5.2654    0.2934    4.0264 C.2       1 <0>         0.5225
     19 O3          6.3187   -0.1967    4.4105 O.co2     1 <0>        -0.6487
     20 O4          5.0272    1.4747    4.2383 O.co2     1 <0>        -0.6336
     21 N2          4.3875   -3.5843    1.4445 N.4       1 <0>        -0.6261
     22 N3          1.5005   -2.7893    1.1678 N.am      1 <0>        -0.7464
     23 C13         0.8690   -2.5423    0.0031 C.2       1 <0>         0.5056
     24 O5          1.2540   -1.6457   -0.7172 O.2       1 <0>        -0.4984
     25 C14        -0.3155   -3.3802   -0.4042 C.3       1 <0>        -0.1717
     26 C15        -0.4512   -2.4072    3.1906 C.3       1 <0>        -0.1748
     27 H4         -0.2706    1.7780    0.3215 H         1 <0>         0.0895
     28 H5         -1.9541    2.3114    0.5448 H         1 <0>         0.0625
     29 H6         -0.7812    2.4876    1.8721 H         1 <0>         0.0583
     30 H7         -1.8128   -0.1561    0.7279 H         1 <0>         0.0738
     31 H8         -2.3771    1.4429    3.2859 H         1 <0>         0.0814
     32 H9         -3.5466    0.6028    2.2130 H         1 <0>         0.0874
     33 H10        -2.6556   -0.6390    4.4686 H         1 <0>         0.0867
     34 H11        -2.8308   -1.5757    2.9484 H         1 <0>         0.0794
     35 H12        -0.3345   -0.5485    4.2866 H         1 <0>         0.0823
     36 H13         5.5191   -2.2011    3.4484 H         1 <0>         0.1660
     37 H14         4.8586   -2.9988    0.7712 H         1 <0>         0.4374
     38 H15         5.0691   -4.1258    1.9546 H         1 <0>         0.4400
     39 H16         1.2300   -3.5425    1.7160 H         1 <0>         0.4063
     40 H17        -0.5642   -4.0730    0.3997 H         1 <0>         0.0787
     41 H18        -1.1689   -2.7313   -0.6016 H         1 <0>         0.1012
     42 H19        -0.0703   -3.9422   -1.3054 H         1 <0>         0.1008
     43 H20        -0.7642   -2.7330    2.1986 H         1 <0>         0.0652
     44 H21         0.6244   -2.5485    3.2969 H         1 <0>         0.0537
     45 H22        -0.9713   -2.9949    3.9470 H         1 <0>         0.0777
     46 H23         3.7546   -4.2065    0.9645 H         1 <0>         0.4261
@<TRIPOS>BOND
     1    1    2 1
     2    1   27 1
     3    1   28 1
     4    1   29 1
     5    2    6 1
     6    2    3 1
     7    2   30 1
     8    3    4 1
     9    3   31 1
    10    3   32 1
    11    4    5 1
    12    4   33 1
    13    4   34 1
    14    5    6 1
    15    5   26 1
    16    5   35 1
    17    6    7 am
    18    7    8 2
    19    7    9 1
    20    9   10 1
    21    9   17 1
    22    9   11 1
    23   11   12 1
    24   11   13 1
    25   11   22 1
    26   13   14 1
    27   13   15 1
    28   13   21 1
    29   15   16 2
    30   15   36 1
    31   16   17 1
    32   16   18 1
    33   18   19 2
    34   18   20 1
    35   21   37 1
    36   21   38 1
    37   21   46 1
    38   22   23 am
    39   22   39 1
    40   23   24 2
    41   23   25 1
    42   25   40 1
    43   25   41 1
    44   25   42 1
    45   26   43 1
    46   26   44 1
    47   26   45 1
@<TRIPOS>MOLECULE
CHEMBL163966__1
   45    46     0     0     0
SMALL
USER_CHARGES

@<TRIPOS>ATOM
      1 C1          0.8152    0.4096   -3.3870 C.3       1 <0>        -0.1698
      2 C2         -0.2114   -0.1293   -2.3887 C.3       1 <0>         0.1387
      3 C3         -1.4271    0.8263   -2.2967 C.3       1 <0>        -0.1307
      4 C4         -1.9792    0.4930   -0.8855 C.3       1 <0>        -0.1239
      5 C5         -0.6990    0.2113   -0.0711 C.3       1 <0>         0.1216
      6 N1          0.3569   -0.1491   -1.0286 N.am      1 <0>        -0.6118
      7 C6          1.6330   -0.4484   -0.7147 C.2       1 <0>         0.5516
      8 O1          2.4375   -0.6716   -1.5944 O.2       1 <0>        -0.4964
      9 C7          2.0602   -0.5058    0.7293 C.3       1 <0>         0.0570
     10 H1          1.2471   -0.1588    1.3669 H         1 <0>         0.0833
     11 C8          2.4305   -1.9477    1.1022 C.3       1 <0>         0.1224
     12 H2          3.2849   -2.2730    0.5087 H         1 <0>         0.1293
     13 C9          2.7927   -1.9807    2.5907 C.3       1 <0>         0.1383
     14 H3          1.8871   -1.8728    3.1876 H         1 <0>         0.0373
     15 C10         3.7362   -0.8507    2.9019 C.2       1 <0>        -0.2646
     16 C11         3.8853    0.1902    2.0936 C.2       1 <0>         0.0510
     17 O2          3.2117    0.3198    0.9245 O.3       1 <0>        -0.2728
     18 C12         4.8246    1.2532    2.4839 C.2       1 <0>         0.5359
     19 O3          5.4469    1.1647    3.5337 O.co2     1 <0>        -0.6670
     20 O4          4.9834    2.2258    1.7588 O.co2     1 <0>        -0.6640
     21 N2          3.4395   -3.2606    2.9091 N.3       1 <0>        -0.8304
     22 N3          1.2894   -2.8315    0.8509 N.am      1 <0>        -0.7291
     23 C13         1.3126   -3.6811   -0.1951 C.2       1 <0>         0.5057
     24 O5          2.3194   -3.7951   -0.8615 O.2       1 <0>        -0.5199
     25 C14         0.0874   -4.4894   -0.5366 C.3       1 <0>        -0.1690
     26 C15        -0.9424   -0.9489    0.8962 C.3       1 <0>        -0.1768
     27 H4          1.6985   -0.2291   -3.3803 H         1 <0>         0.0901
     28 H5          0.3804    0.4179   -4.3865 H         1 <0>         0.0577
     29 H6          1.0981    1.4239   -3.1054 H         1 <0>         0.0572
     30 H7         -0.5338   -1.1291   -2.6797 H         1 <0>         0.0709
     31 H8         -1.1108    1.8677   -2.3565 H         1 <0>         0.0788
     32 H9         -2.1627    0.5982   -3.0680 H         1 <0>         0.0825
     33 H10        -2.5199    1.3443   -0.4719 H         1 <0>         0.0829
     34 H11        -2.6168   -0.3904   -0.9196 H         1 <0>         0.0775
     35 H12        -0.4082    1.1038    0.4829 H         1 <0>         0.0807
     36 H13         4.3115   -0.8883    3.8151 H         1 <0>         0.1394
     37 H14         3.6883   -3.3069    3.8859 H         1 <0>         0.3464
     38 H15         2.8511   -4.0378    2.6486 H         1 <0>         0.3350
     39 H16         0.5172   -2.8052    1.4374 H         1 <0>         0.3963
     40 H17        -0.7373   -4.1900    0.1102 H         1 <0>         0.0724
     41 H18        -0.1850   -4.3141   -1.5774 H         1 <0>         0.0927
     42 H19         0.2983   -5.5486   -0.3896 H         1 <0>         0.0938
     43 H20        -0.9707   -1.8858    0.3400 H         1 <0>         0.0647
     44 H21        -0.1367   -0.9857    1.6294 H         1 <0>         0.0620
     45 H22        -1.8933   -0.8015    1.4083 H         1 <0>         0.0730
@<TRIPOS>BOND
     1    1    2 1
     2    1   27 1
     3    1   28 1
     4    1   29 1
     5    2    6 1
     6    2    3 1
     7    2   30 1
     8    3    4 1
     9    3   31 1
    10    3   32 1
    11    4    5 1
    12    4   33 1
    13    4   34 1
    14    5    6 1
    15    5   26 1
    16    5   35 1
    17    6    7 am
    18    7    8 2
    19    7    9 1
    20    9   10 1
    21    9   17 1
    22    9   11 1
    23   11   12 1
    24   11   13 1
    25   11   22 1
    26   13   14 1
    27   13   15 1
    28   13   21 1
    29   15   16 2
    30   15   36 1
    31   16   17 1
    32   16   18 1
    33   18   19 2
    34   18   20 1
    35   21   37 1
    36   21   38 1
    37   22   23 am
    38   22   39 1
    39   23   24 2
    40   23   25 1
    41   25   40 1
    42   25   41 1
    43   25   42 1
    44   26   43 1
    45   26   44 1
    46   26   45 1
@<TRIPOS>MOLECULE
CHEMBL163966__2
   46    47     0     0     0
SMALL
USER_CHARGES

@<TRIPOS>ATOM
      1 C1         -0.0114    2.1983    1.0811 C.3       1 <0>        -0.1670
      2 C2         -0.3526    0.7069    1.0698 C.3       1 <0>         0.1383
      3 C3         -1.8186    0.5006    1.5055 C.3       1 <0>        -0.1277
      4 C4         -1.7468   -0.7870    2.3682 C.3       1 <0>        -0.1297
      5 C5         -0.3704   -0.6218    3.0595 C.3       1 <0>         0.1160
      6 N1          0.4946   -0.0072    2.0361 N.am      1 <0>        -0.6053
      7 C6          1.8393   -0.0870    1.9932 C.2       1 <0>         0.5455
      8 O1          2.4460    0.3962    1.0608 O.2       1 <0>        -0.4868
      9 C7          2.5890   -0.7768    3.1037 C.3       1 <0>         0.0614
     10 H1          2.0371   -0.6747    4.0381 H         1 <0>         0.1009
     11 C8          2.7622   -2.2636    2.7651 C.3       1 <0>         0.0922
     12 H2          3.3684   -2.3674    1.8652 H         1 <0>         0.1369
     13 C9          3.4656   -2.9454    3.9434 C.3       1 <0>         0.0888
     14 H3          2.7708   -3.0360    4.7783 H         1 <0>         0.1441
     15 C10         4.6512   -2.1203    4.3647 C.2       1 <0>        -0.3758
     16 C11         4.7900   -0.8491    4.0131 C.2       1 <0>         0.1423
     17 O2          3.8870   -0.1926    3.2444 O.3       1 <0>        -0.2536
     18 C12         5.9785   -0.1176    4.4790 C.2       1 <0>         0.5224
     19 O3          6.8112   -0.6831    5.1746 O.co2     1 <0>        -0.6490
     20 O4          6.1341    1.0563    4.1709 O.co2     1 <0>        -0.6324
     21 N2          3.9189   -4.2821    3.5362 N.4       1 <0>        -0.6263
     22 N3          1.4496   -2.8775    2.5500 N.am      1 <0>        -0.7449
     23 C13         1.0195   -3.1271    1.2973 C.2       1 <0>         0.5089
     24 O5          1.6774   -2.7618    0.3462 O.2       1 <0>        -0.5050
     25 C14        -0.2788   -3.8602    1.0784 C.3       1 <0>        -0.1729
     26 C15        -0.4925    0.2981    4.2759 C.3       1 <0>        -0.1706
     27 H4          1.0357    2.3336    0.8101 H         1 <0>         0.0706
     28 H5         -0.6430    2.7210    0.3628 H         1 <0>         0.0682
     29 H6         -0.1838    2.6030    2.0784 H         1 <0>         0.0583
     30 H7         -0.1997    0.2994    0.0705 H         1 <0>         0.0782
     31 H8         -2.1664    1.3448    2.1009 H         1 <0>         0.0823
     32 H9         -2.4610    0.3483    0.6382 H         1 <0>         0.0851
     33 H10        -2.5523   -0.8110    3.1022 H         1 <0>         0.0893
     34 H11        -1.7647   -1.6787    1.7415 H         1 <0>         0.0754
     35 H12         0.0243   -1.5937    3.3559 H         1 <0>         0.0782
     36 H13         5.4154   -2.5790    4.9747 H         1 <0>         0.1660
     37 H14         4.5622   -4.1981    2.7634 H         1 <0>         0.4369
     38 H15         4.3821   -4.7310    4.3121 H         1 <0>         0.4402
     39 H16         0.8899   -3.1042    3.3091 H         1 <0>         0.4080
     40 H17        -0.7696   -4.0244    2.0378 H         1 <0>         0.0807
     41 H18        -0.9278   -3.2657    0.4354 H         1 <0>         0.1029
     42 H19        -0.0782   -4.8207    0.6038 H         1 <0>         0.1024
     43 H20        -1.1782   -0.1441    4.9986 H         1 <0>         0.0725
     44 H21         0.4878    0.4248    4.7355 H         1 <0>         0.0592
     45 H22        -0.8739    1.2692    3.9602 H         1 <0>         0.0690
     46 H23         3.1238   -4.8352    3.2534 H         1 <0>         0.4257
@<TRIPOS>BOND
     1    1    2 1
     2    1   27 1
     3    1   28 1
     4    1   29 1
     5    2    6 1
     6    2    3 1
     7    2   30 1
     8    3    4 1
     9    3   31 1
    10    3   32 1
    11    4    5 1
    12    4   33 1
    13    4   34 1
    14    5    6 1
    15    5   26 1
    16    5   35 1
    17    6    7 am
    18    7    8 2
    19    7    9 1
    20    9   10 1
    21    9   17 1
    22    9   11 1
    23   11   12 1
    24   11   13 1
    25   11   22 1
    26   13   14 1
    27   13   15 1
    28   13   21 1
    29   15   16 2
    30   15   36 1
    31   16   17 1
    32   16   18 1
    33   18   19 2
    34   18   20 1
    35   21   37 1
    36   21   38 1
    37   21   46 1
    38   22   23 am
    39   22   39 1
    40   23   24 2
    41   23   25 1
    42   25   40 1
    43   25   41 1
    44   25   42 1
    45   26   43 1
    46   26   44 1
    47   26   45 1
@<TRIPOS>MOLECULE
CHEMBL163966__3
   45    46     0     0     0
SMALL
USER_CHARGES

@<TRIPOS>ATOM
      1 C1          1.3987    0.4936   -1.8763 C.3       1 <0>        -0.1654
      2 C2          0.6733   -0.6128   -1.1079 C.3       1 <0>         0.1372
      3 C3         -0.8384   -0.3080   -1.0511 C.3       1 <0>        -0.1257
      4 C4         -1.2309   -0.7616    0.3799 C.3       1 <0>        -0.1271
      5 C5          0.0349   -0.3774    1.1860 C.3       1 <0>         0.1228
      6 N1          1.1612   -0.6614    0.2782 N.am      1 <0>        -0.6104
      7 C6          2.4281   -0.9229    0.6562 C.2       1 <0>         0.5499
      8 O1          3.2622   -1.2107   -0.1759 O.2       1 <0>        -0.5012
      9 C7          2.8085   -0.8575    2.1130 C.3       1 <0>         0.0638
     10 H1          2.0921   -0.2377    2.6521 H         1 <0>         0.0816
     11 C8          2.8197   -2.2719    2.7085 C.3       1 <0>         0.1195
     12 H2          3.5807   -2.8738    2.2119 H         1 <0>         0.1281
     13 C9          3.1421   -2.1612    4.2024 C.3       1 <0>         0.1363
     14 H3          2.2795   -1.7556    4.7312 H         1 <0>         0.0373
     15 C10         4.3227   -1.2482    4.3939 C.2       1 <0>        -0.2613
     16 C11         4.7267   -0.4064    3.4522 C.2       1 <0>         0.0477
     17 O2          4.1204   -0.3031    2.2442 O.3       1 <0>        -0.2675
     18 C12         5.8862    0.4553    3.7313 C.2       1 <0>         0.5365
     19 O3          6.4543    0.3851    4.8127 O.co2     1 <0>        -0.6669
     20 O4          6.2823    1.2419    2.8820 O.co2     1 <0>        -0.6636
     21 N2          3.4612   -3.4927    4.7346 N.3       1 <0>        -0.8276
     22 N3          1.5049   -2.8932    2.5308 N.am      1 <0>        -0.7274
     23 C13         1.4131   -4.1551    2.0664 C.2       1 <0>         0.5071
     24 O5          2.4190   -4.7763    1.7957 O.2       1 <0>        -0.5240
     25 C14         0.0607   -4.7942    1.8836 C.3       1 <0>        -0.1684
     26 C15         0.0047    1.1088    1.5482 C.3       1 <0>        -0.1687
     27 H4          2.4699    0.2919   -1.8790 H         1 <0>         0.0712
     28 H5          1.0321    0.5237   -2.9024 H         1 <0>         0.0634
     29 H6          1.2109    1.4534   -1.3951 H         1 <0>         0.0576
     30 H7          0.8421   -1.5736   -1.5942 H         1 <0>         0.0750
     31 H8         -1.0220    0.7584   -1.1815 H         1 <0>         0.0795
     32 H9         -1.3771   -0.8877   -1.8007 H         1 <0>         0.0814
     33 H10        -2.1030   -0.2145    0.7377 H         1 <0>         0.0865
     34 H11        -1.4048   -1.8371    0.4149 H         1 <0>         0.0766
     35 H12         0.1106   -0.9867    2.0866 H         1 <0>         0.0745
     36 H13         4.8592   -1.2793    5.3307 H         1 <0>         0.1391
     37 H14         3.6776   -3.4463    5.7190 H         1 <0>         0.3448
     38 H15         2.7086   -4.1418    4.5600 H         1 <0>         0.3341
     39 H16         0.7004   -2.3964    2.7472 H         1 <0>         0.3932
     40 H17        -0.7171   -4.0889    2.1763 H         1 <0>         0.0725
     41 H18        -0.0730   -5.0688    0.8372 H         1 <0>         0.0938
     42 H19        -0.0062   -5.6873    2.5049 H         1 <0>         0.0949
     43 H20        -0.8643    1.3128    2.1738 H         1 <0>         0.0696
     44 H21         0.9129    1.3688    2.0920 H         1 <0>         0.0640
     45 H22        -0.0560    1.7037    0.6369 H         1 <0>         0.0657
@<TRIPOS>BOND
     1    1    2 1
     2    1   27 1
     3    1   28 1
     4    1   29 1
     5    2    6 1
     6    2    3 1
     7    2   30 1
     8    3    4 1
     9    3   31 1
    10    3   32 1
    11    4    5 1
    12    4   33 1
    13    4   34 1
    14    5    6 1
    15    5   26 1
    16    5   35 1
    17    6    7 am
    18    7    8 2
    19    7    9 1
    20    9   10 1
    21    9   17 1
    22    9   11 1
    23   11   12 1
    24   11   13 1
    25   11   22 1
    26   13   14 1
    27   13   15 1
    28   13   21 1
    29   15   16 2
    30   15   36 1
    31   16   17 1
    32   16   18 1
    33   18   19 2
    34   18   20 1
    35   21   37 1
    36   21   38 1
    37   22   23 am
    38   22   39 1
    39   23   24 2
    40   23   25 1
    41   25   40 1
    42   25   41 1
    43   25   42 1
    44   26   43 1
    45   26   44 1
    46   26   45 1
@<TRIPOS>MOLECULE
CHEMBL163966__4
   46    47     0     0     0
SMALL
USER_CHARGES

@<TRIPOS>ATOM
      1 C1          1.1479   -4.0075    1.6839 C.3       1 <0>        -0.1783
      2 C2          1.2536   -2.8317    0.7106 C.3       1 <0>         0.1215
      3 C3          0.7226   -3.2496   -0.6769 C.3       1 <0>        -0.1273
      4 C4         -0.0243   -1.9786   -1.1604 C.3       1 <0>        -0.1303
      5 C5         -0.6169   -1.4424    0.1666 C.3       1 <0>         0.1361
      6 N1          0.4177   -1.7171    1.1802 N.am      1 <0>        -0.6074
      7 C6          0.5716   -1.0563    2.3447 C.2       1 <0>         0.5450
      8 O1         -0.2228   -0.1974    2.6642 O.2       1 <0>        -0.4867
      9 C7          1.7308   -1.3847    3.2500 C.3       1 <0>         0.0505
     10 H1          1.9999   -2.4348    3.1358 H         1 <0>         0.1102
     11 C8          2.9332   -0.5009    2.8917 C.3       1 <0>         0.0911
     12 H2          2.6849    0.5460    3.0666 H         1 <0>         0.1386
     13 C9          4.1110   -0.9084    3.7832 C.3       1 <0>         0.0882
     14 H3          4.4988   -1.8727    3.4547 H         1 <0>         0.1433
     15 C10         3.6461   -1.0145    5.2103 C.2       1 <0>        -0.3754
     16 C11         2.3633   -1.1158    5.5313 C.2       1 <0>         0.1416
     17 O2          1.3696   -1.1247    4.6092 O.3       1 <0>        -0.2537
     18 C12         2.0019   -1.2239    6.9534 C.2       1 <0>         0.5225
     19 O3          2.8765   -1.2191    7.8089 O.co2     1 <0>        -0.6490
     20 O4          0.8267   -1.3187    7.2804 O.co2     1 <0>        -0.6326
     21 N2          5.1710    0.1041    3.6874 N.4       1 <0>        -0.6259
     22 N3          3.2877   -0.6959    1.4837 N.am      1 <0>        -0.7427
     23 C13         2.9937    0.2565    0.5766 C.2       1 <0>         0.5126
     24 O5          2.4972    1.3032    0.9355 O.2       1 <0>        -0.5123
     25 C14         3.2821    0.0210   -0.8837 C.3       1 <0>        -0.1730
     26 C15        -0.8761    0.0621    0.0646 C.3       1 <0>        -0.1627
     27 H4          0.1043   -4.1576    1.9603 H         1 <0>         0.0720
     28 H5          1.5308   -4.9096    1.2068 H         1 <0>         0.0776
     29 H6          1.7333   -3.7928    2.5779 H         1 <0>         0.0593
     30 H7          2.2916   -2.5088    0.6309 H         1 <0>         0.0703
     31 H8          1.5466   -3.4916   -1.3483 H         1 <0>         0.0851
     32 H9          0.0353   -4.0910   -0.5894 H         1 <0>         0.0841
     33 H10         0.6694   -1.2601   -1.5970 H         1 <0>         0.0756
     34 H11        -0.8147   -2.2345   -1.8660 H         1 <0>         0.0890
     35 H12        -1.5380   -1.9711    0.4118 H         1 <0>         0.0801
     36 H13         4.3823   -1.0083    6.0004 H         1 <0>         0.1657
     37 H14         4.8121    0.9967    3.9916 H         1 <0>         0.4370
     38 H15         5.9466   -0.1643    4.2745 H         1 <0>         0.4398
     39 H16         3.7340   -1.5106    1.2043 H         1 <0>         0.4077
     40 H17         3.6871   -0.9822   -1.0168 H         1 <0>         0.0801
     41 H18         2.3600    0.1196   -1.4566 H         1 <0>         0.1031
     42 H19         4.0076    0.7552   -1.2338 H         1 <0>         0.1017
     43 H20        -1.5288    0.2615   -0.7854 H         1 <0>         0.0645
     44 H21        -1.3544    0.4112    0.9797 H         1 <0>         0.0811
     45 H22         0.0701    0.5853   -0.0733 H         1 <0>         0.0565
     46 H23         5.4826    0.1754    2.7304 H         1 <0>         0.4256
@<TRIPOS>BOND
     1    1    2 1
     2    1   27 1
     3    1   28 1
     4    1   29 1
     5    2    6 1
     6    2    3 1
     7    2   30 1
     8    3    4 1
     9    3   31 1
    10    3   32 1
    11    4    5 1
    12    4   33 1
    13    4   34 1
    14    5    6 1
    15    5   26 1
    16    5   35 1
    17    6    7 am
    18    7    8 2
    19    7    9 1
    20    9   10 1
    21    9   17 1
    22    9   11 1
    23   11   12 1
    24   11   13 1
    25   11   22 1
    26   13   14 1
    27   13   15 1
    28   13   21 1
    29   15   16 2
    30   15   36 1
    31   16   17 1
    32   16   18 1
    33   18   19 2
    34   18   20 1
    35   21   37 1
    36   21   38 1
    37   21   46 1
    38   22   23 am
    39   22   39 1
    40   23   24 2
    41   23   25 1
    42   25   40 1
    43   25   41 1
    44   25   42 1
    45   26   43 1
    46   26   44 1
    47   26   45 1
@<TRIPOS>MOLECULE
CHEMBL163966__5
   45    46     0     0     0
SMALL
USER_CHARGES

@<TRIPOS>ATOM
      1 C1         -0.1864   -2.9866    1.4405 C.3       1 <0>        -0.1788
      2 C2          0.3909   -1.9937    0.4297 C.3       1 <0>         0.1244
      3 C3         -0.3359   -2.1401   -0.9237 C.3       1 <0>        -0.1253
      4 C4         -0.4531   -0.6733   -1.4157 C.3       1 <0>        -0.1295
      5 C5         -0.6779    0.0846   -0.0835 C.3       1 <0>         0.1365
      6 N1          0.1690   -0.6177    0.8977 N.am      1 <0>        -0.6138
      7 C6          0.6583   -0.0865    2.0357 C.2       1 <0>         0.5500
      8 O1          0.3419    1.0368    2.3656 O.2       1 <0>        -0.4993
      9 C7          1.5987   -0.8884    2.8980 C.3       1 <0>         0.0551
     10 H1          1.4765   -1.9505    2.6855 H         1 <0>         0.0915
     11 C8          3.0470   -0.4675    2.6140 C.3       1 <0>         0.1243
     12 H2          3.1858    0.5787    2.8865 H         1 <0>         0.1198
     13 C9          3.9766   -1.3484    3.4552 C.3       1 <0>         0.1349
     14 H3          4.0015   -2.3543    3.0363 H         1 <0>         0.0359
     15 C10         3.4673   -1.4066    4.8698 C.2       1 <0>        -0.2584
     16 C11         2.2255   -1.0684    5.1896 C.2       1 <0>         0.0445
     17 O2          1.3192   -0.6378    4.2782 O.3       1 <0>        -0.2666
     18 C12         1.8122   -1.1652    6.5984 C.2       1 <0>         0.5369
     19 O3          2.6078   -1.5509    7.4442 O.co2     1 <0>        -0.6668
     20 O4          0.6729   -0.8601    6.9240 O.co2     1 <0>        -0.6641
     21 N2          5.3312   -0.7801    3.4453 N.3       1 <0>        -0.8257
     22 N3          3.3447   -0.6511    1.1913 N.am      1 <0>        -0.7274
     23 C13         4.2447    0.1466    0.5828 C.2       1 <0>         0.5034
     24 O5          4.8081    1.0163    1.2130 O.2       1 <0>        -0.5196
     25 C14         4.5511   -0.0423   -0.8806 C.3       1 <0>        -0.1691
     26 C15        -0.2371    1.5434   -0.2199 C.3       1 <0>        -0.1586
     27 H4         -1.2219   -2.7240    1.6569 H         1 <0>         0.0692
     28 H5         -0.1462   -3.9933    1.0246 H         1 <0>         0.0731
     29 H6          0.3975   -2.9498    2.3602 H         1 <0>         0.0683
     30 H7          1.4582   -2.1740    0.3014 H         1 <0>         0.0669
     31 H8          0.2584   -2.7336   -1.6184 H         1 <0>         0.0835
     32 H9         -1.3234   -2.5805   -0.7855 H         1 <0>         0.0819
     33 H10         0.4683   -0.3486   -1.8993 H         1 <0>         0.0768
     34 H11        -1.3063   -0.5520   -2.0831 H         1 <0>         0.0845
     35 H12        -1.7257    0.0300    0.2118 H         1 <0>         0.0766
     36 H13         4.1359   -1.7355    5.6516 H         1 <0>         0.1389
     37 H14         5.9637   -1.3434    3.9937 H         1 <0>         0.3416
     38 H15         5.6705   -0.6704    2.5014 H         1 <0>         0.3371
     39 H16         2.8942   -1.3467    0.6873 H         1 <0>         0.3924
     40 H17         3.9531   -0.8644   -1.2738 H         1 <0>         0.0717
     41 H18         4.3121    0.8726   -1.4228 H         1 <0>         0.0943
     42 H19         5.6095   -0.2716   -1.0036 H         1 <0>         0.0947
     43 H20        -0.7249    1.9909   -1.0858 H         1 <0>         0.0610
     44 H21        -0.5166    2.0929    0.6790 H         1 <0>         0.0791
     45 H22         0.8443    1.5855   -0.3499 H         1 <0>         0.0545
@<TRIPOS>BOND
     1    1    2 1
     2    1   27 1
     3    1   28 1
     4    1   29 1
     5    2    6 1
     6    2    3 1
     7    2   30 1
     8    3    4 1
     9    3   31 1
    10    3   32 1
    11    4    5 1
    12    4   33 1
    13    4   34 1
    14    5    6 1
    15    5   26 1
    16    5   35 1
    17    6    7 am
    18    7    8 2
    19    7    9 1
    20    9   10 1
    21    9   17 1
    22    9   11 1
    23   11   12 1
    24   11   13 1
    25   11   22 1
    26   13   14 1
    27   13   15 1
    28   13   21 1
    29   15   16 2
    30   15   36 1
    31   16   17 1
    32   16   18 1
    33   18   19 2
    34   18   20 1
    35   21   37 1
    36   21   38 1
    37   22   23 am
    38   22   39 1
    39   23   24 2
    40   23   25 1
    41   25   40 1
    42   25   41 1
    43   25   42 1
    44   26   43 1
    45   26   44 1
    46   26   45 1
@<TRIPOS>MOLECULE
CHEMBL348207
   46    46     0     0     0
SMALL
USER_CHARGES

@<TRIPOS>ATOM
      1 C1         -0.0184    1.5028    0.0103 C.3       1 <0>        -0.1756
      2 C2          0.0021   -0.0041    0.0020 C.2       1 <0>         0.5269
      3 O1          0.0203   -0.6160    1.0489 O.2       1 <0>        -0.5523
      4 N1          0.0001   -0.6716   -1.1688 N.am      1 <0>        -0.7109
      5 C3          0.0199   -2.1365   -1.1769 C.3       1 <0>         0.1084
      6 H1         -0.5555   -2.5168   -0.3329 H         1 <0>         0.1197
      7 C4          1.4662   -2.6347   -1.0833 C.3       1 <0>         0.1721
      8 H2          2.0881   -2.0791   -1.7852 H         1 <0>         0.1066
      9 C5          1.5140   -4.0998   -1.4217 C.2       1 <0>        -0.3111
     10 C6          0.5425   -4.7072   -2.0502 C.2       1 <0>         0.1281
     11 O2         -0.5904   -4.0851   -2.4447 O.3       1 <0>        -0.2815
     12 C7         -0.5819   -2.6555   -2.4901 C.3       1 <0>         0.0660
     13 H3          0.0248   -2.3188   -3.3308 H         1 <0>         0.1010
     14 C8         -2.0122   -2.1346   -2.6437 C.3       1 <0>         0.0884
     15 C9         -2.6067   -2.6551   -3.9539 C.3       1 <0>         0.0804
     16 H4         -2.6985   -3.7401   -3.9055 H         1 <0>         0.1251
     17 C10        -3.9889   -2.0353   -4.1685 C.3       1 <0>         0.0490
     18 O3         -4.5928   -2.6083   -5.3300 O.3       1 <0>        -0.5643
     19 O4         -1.7504   -2.2976   -5.0406 O.3       1 <0>        -0.5421
     20 O5         -1.9996   -0.7058   -2.6607 O.3       1 <0>        -0.5314
     21 C11         0.6935   -6.1762   -2.3507 C.3       1 <0>         0.3219
     22 O6         -0.3626   -6.9026   -1.7190 O.3       1 <0>        -0.5728
     23 O7          0.6344   -6.3819   -3.7636 O.3       1 <0>        -0.5640
     24 N2          1.9658   -2.4312    0.2788 N.pl3     1 <0>        -0.6754
     25 C12         3.3092   -2.3043    0.5027 C.cat     1 <0>         0.7423
     26 N3          3.7634   -2.1194    1.7411 N.pl3     1 <0>        -0.7915
     27 N4          4.1632   -2.3657   -0.5176 N.pl3     1 <0>        -0.7977
     28 H5          1.0042    1.8801    0.0026 H         1 <0>         0.0956
     29 H6         -0.5455    1.8639   -0.8728 H         1 <0>         0.0887
     30 H7         -0.5286    1.8543    0.9071 H         1 <0>         0.1015
     31 H8         -0.0145   -0.1822   -2.0061 H         1 <0>         0.4085
     32 H9          2.3843   -4.6711   -1.1346 H         1 <0>         0.1419
     33 H10        -2.6174   -2.4827   -1.8066 H         1 <0>         0.1283
     34 H11        -4.6149   -2.2331   -3.2984 H         1 <0>         0.0576
     35 H12        -3.8871   -0.9587   -4.3056 H         1 <0>         0.0567
     36 H13        -5.4735   -2.2612   -5.5273 H         1 <0>         0.3872
     37 H14        -1.6228   -1.3446   -5.1438 H         1 <0>         0.3688
     38 H15        -1.4786   -0.3257   -3.3813 H         1 <0>         0.3735
     39 H16         1.6533   -6.5277   -1.9721 H         1 <0>         0.1247
     40 H17        -0.3286   -7.8572   -1.8701 H         1 <0>         0.4013
     41 H18        -0.1940   -6.0914   -4.1690 H         1 <0>         0.3962
     42 H19         1.3439   -2.3865    1.0218 H         1 <0>         0.4441
     43 H20         3.1415   -2.0747    2.4842 H         1 <0>         0.4426
     44 H21         3.8324   -2.5004   -1.4195 H         1 <0>         0.4374
     45 H22         5.1158   -2.2757   -0.3588 H         1 <0>         0.4399
     46 H23         4.7160   -2.0294    1.8999 H         1 <0>         0.4403
@<TRIPOS>BOND
     1    1    2 1
     2    1   28 1
     3    1   29 1
     4    1   30 1
     5    2    3 2
     6    2    4 am
     7    4    5 1
     8    4   31 1
     9    5    6 1
    10    5   12 1
    11    5    7 1
    12    7    8 1
    13    7    9 1
    14    7   24 1
    15    9   10 2
    16    9   32 1
    17   10   11 1
    18   10   21 1
    19   11   12 1
    20   12   13 1
    21   12   14 1
    22   14   15 1
    23   14   20 1
    24   14   33 1
    25   15   16 1
    26   15   17 1
    27   15   19 1
    28   17   18 1
    29   17   34 1
    30   17   35 1
    31   18   36 1
    32   19   37 1
    33   20   38 1
    34   21   22 1
    35   21   23 1
    36   21   39 1
    37   22   40 1
    38   23   41 1
    39   24   25 1
    40   24   42 1
    41   25   26 2
    42   25   27 1
    43   26   43 1
    44   26   46 1
    45   27   44 1
    46   27   45 1
@<TRIPOS>MOLECULE
CHEMBL348207__1
   46    46     0     0     0
SMALL
USER_CHARGES

@<TRIPOS>ATOM
      1 C1         -0.0184    1.5028    0.0103 C.3       1 <0>        -0.1771
      2 C2          0.0021   -0.0041    0.0020 C.2       1 <0>         0.5259
      3 O1          0.0203   -0.6160    1.0489 O.2       1 <0>        -0.5444
      4 N1          0.0001   -0.6716   -1.1688 N.am      1 <0>        -0.7245
      5 C3          0.0199   -2.1365   -1.1769 C.3       1 <0>         0.1100
      6 H1         -0.5555   -2.5168   -0.3329 H         1 <0>         0.1266
      7 C4          1.4662   -2.6347   -1.0833 C.3       1 <0>         0.1712
      8 H2          2.0881   -2.0791   -1.7852 H         1 <0>         0.1065
      9 C5          1.5140   -4.0998   -1.4217 C.2       1 <0>        -0.3095
     10 C6          0.5425   -4.7072   -2.0502 C.2       1 <0>         0.1278
     11 O2         -0.5904   -4.0851   -2.4447 O.3       1 <0>        -0.2875
     12 C7         -0.5819   -2.6555   -2.4901 C.3       1 <0>         0.0618
     13 H3          0.0248   -2.3188   -3.3308 H         1 <0>         0.1056
     14 C8         -2.0122   -2.1346   -2.6437 C.3       1 <0>         0.0936
     15 C9         -2.6496   -2.7540   -3.8891 C.3       1 <0>         0.0798
     16 H4         -2.6671   -3.8391   -3.7869 H         1 <0>         0.1186
     17 C10        -4.0800   -2.2331   -4.0426 C.3       1 <0>         0.0457
     18 O3         -4.7144   -2.8983   -5.1367 O.3       1 <0>        -0.5636
     19 O4         -1.8861   -2.3965   -5.0428 O.3       1 <0>        -0.5416
     20 O5         -2.7758   -2.4922   -1.4899 O.3       1 <0>        -0.5408
     21 C11         0.6935   -6.1762   -2.3507 C.3       1 <0>         0.3217
     22 O6         -0.3626   -6.9026   -1.7190 O.3       1 <0>        -0.5732
     23 O7          0.6344   -6.3819   -3.7636 O.3       1 <0>        -0.5639
     24 N2          1.9658   -2.4312    0.2788 N.pl3     1 <0>        -0.6757
     25 C12         3.3092   -2.3043    0.5027 C.cat     1 <0>         0.7421
     26 N3          3.7634   -2.1194    1.7411 N.pl3     1 <0>        -0.7915
     27 N4          4.1632   -2.3657   -0.5176 N.pl3     1 <0>        -0.7977
     28 H5          1.0042    1.8801    0.0026 H         1 <0>         0.0979
     29 H6         -0.5455    1.8639   -0.8728 H         1 <0>         0.0872
     30 H7         -0.5286    1.8543    0.9071 H         1 <0>         0.1035
     31 H8         -0.0145   -0.1822   -2.0061 H         1 <0>         0.4090
     32 H9          2.3843   -4.6711   -1.1346 H         1 <0>         0.1417
     33 H10        -1.9948   -1.0496   -2.7459 H         1 <0>         0.1224
     34 H11        -4.6378   -2.4275   -3.1265 H         1 <0>         0.0653
     35 H12        -4.0575   -1.1602   -4.2335 H         1 <0>         0.0494
     36 H13        -5.6263   -2.6170   -5.2927 H         1 <0>         0.3869
     37 H14        -1.8278   -1.4435   -5.1961 H         1 <0>         0.3747
     38 H15        -2.8341   -3.4452   -1.3366 H         1 <0>         0.3901
     39 H16         1.6533   -6.5277   -1.9721 H         1 <0>         0.1242
     40 H17        -0.3286   -7.8572   -1.8701 H         1 <0>         0.4015
     41 H18        -0.1940   -6.0914   -4.1690 H         1 <0>         0.3961
     42 H19         1.3439   -2.3865    1.0218 H         1 <0>         0.4440
     43 H20         3.1415   -2.0747    2.4842 H         1 <0>         0.4426
     44 H21         3.8324   -2.5004   -1.4195 H         1 <0>         0.4374
     45 H22         5.1158   -2.2757   -0.3588 H         1 <0>         0.4399
     46 H23         4.7160   -2.0294    1.8999 H         1 <0>         0.4404
@<TRIPOS>BOND
     1    1    2 1
     2    1   28 1
     3    1   29 1
     4    1   30 1
     5    2    3 2
     6    2    4 am
     7    4    5 1
     8    4   31 1
     9    5    6 1
    10    5   12 1
    11    5    7 1
    12    7    8 1
    13    7    9 1
    14    7   24 1
    15    9   10 2
    16    9   32 1
    17   10   11 1
    18   10   21 1
    19   11   12 1
    20   12   13 1
    21   12   14 1
    22   14   15 1
    23   14   20 1
    24   14   33 1
    25   15   16 1
    26   15   17 1
    27   15   19 1
    28   17   18 1
    29   17   34 1
    30   17   35 1
    31   18   36 1
    32   19   37 1
    33   20   38 1
    34   21   22 1
    35   21   23 1
    36   21   39 1
    37   22   40 1
    38   23   41 1
    39   24   25 1
    40   24   42 1
    41   25   26 2
    42   25   27 1
    43   26   43 1
    44   26   46 1
    45   27   44 1
    46   27   45 1
@<TRIPOS>MOLECULE
CHEMBL22803
   40    41     0     0     0
SMALL
USER_CHARGES

@<TRIPOS>ATOM
      1 C1         -0.0184    1.5028    0.0103 C.3       1 <0>        -0.1737
      2 C2          0.0021   -0.0041    0.0020 C.2       1 <0>         0.5001
      3 O1          1.0605   -0.5961   -0.0113 O.2       1 <0>        -0.5208
      4 N1         -1.1558   -0.6938    0.0094 N.am      1 <0>        -0.7198
      5 C3         -1.1360   -2.1586    0.0013 C.3       1 <0>         0.1622
      6 H1         -0.2845   -2.5164    0.5802 H         1 <0>         0.1000
      7 C4         -1.0266   -2.6644   -1.4423 C.3       1 <0>         0.0851
      8 H2         -1.9464   -2.4364   -1.9809 H         1 <0>         0.0318
      9 C5         -0.8109   -4.1789   -1.4116 C.3       1 <0>        -0.0613
     10 C6         -1.8286   -4.8276   -0.5192 C.2       1 <0>        -0.1402
     11 C7         -2.5429   -4.1726    0.3744 C.2       1 <0>        -0.1958
     12 C8         -2.4333   -2.6936    0.6111 C.3       1 <0>         0.1148
     13 H3         -3.2835   -2.1922    0.1487 H         1 <0>         0.0871
     14 N2         -2.4396   -2.4252    2.0553 N.3       1 <0>        -0.5192
     15 C9         -1.3197   -3.1051    2.7224 C.3       1 <0>         0.0086
     16 C10        -1.3292   -2.7511    4.2119 C.3       1 <0>         0.0691
     17 O2         -2.5938   -3.1113    4.7743 O.3       1 <0>        -0.3860
     18 C11        -3.7067   -2.4668    4.1487 C.3       1 <0>         0.0682
     19 C12        -3.7214   -2.8179    2.6586 C.3       1 <0>         0.0099
     20 C13        -2.0409   -6.2734   -0.6492 C.2       1 <0>         0.5102
     21 O3         -2.8623   -6.8376    0.0612 O.co2     1 <0>        -0.6913
     22 O4         -1.3967   -6.9152   -1.4681 O.co2     1 <0>        -0.6895
     23 N3          0.1095   -2.0137   -2.1085 N.3       1 <0>        -0.8276
     24 H4          1.0042    1.8801    0.0026 H         1 <0>         0.0883
     25 H5         -0.5455    1.8639   -0.8728 H         1 <0>         0.0815
     26 H6         -0.5286    1.8543    0.9071 H         1 <0>         0.0838
     27 H7         -2.0023   -0.2203    0.0200 H         1 <0>         0.3959
     28 H8         -0.9085   -4.5784   -2.4210 H         1 <0>         0.0769
     29 H9          0.1892   -4.3939   -1.0351 H         1 <0>         0.0808
     30 H10        -3.2457   -4.7323    0.9738 H         1 <0>         0.1214
     31 H11        -1.4260   -4.1834    2.6039 H         1 <0>         0.0567
     32 H12        -0.3794   -2.7803    2.2771 H         1 <0>         0.0865
     33 H13        -0.5354   -3.2978    4.7210 H         1 <0>         0.0953
     34 H14        -1.1692   -1.6796    4.3323 H         1 <0>         0.0541
     35 H15        -4.6325   -2.8079    4.6122 H         1 <0>         0.0946
     36 H16        -3.6159   -1.3871    4.2674 H         1 <0>         0.0541
     37 H17        -4.5341   -2.2835    2.1667 H         1 <0>         0.0826
     38 H18        -3.8660   -3.8917    2.5391 H         1 <0>         0.0565
     39 H19         0.2007   -2.3322   -3.0616 H         1 <0>         0.3367
     40 H20         0.0244   -1.0090   -2.0696 H         1 <0>         0.3324
@<TRIPOS>BOND
     1    1    2 1
     2    1   24 1
     3    1   25 1
     4    1   26 1
     5    2    3 2
     6    2    4 am
     7    4    5 1
     8    4   27 1
     9    5    6 1
    10    5   12 1
    11    5    7 1
    12    7    8 1
    13    7    9 1
    14    7   23 1
    15    9   10 1
    16    9   28 1
    17    9   29 1
    18   10   11 2
    19   10   20 1
    20   11   12 1
    21   11   30 1
    22   12   13 1
    23   12   14 1
    24   14   19 1
    25   14   15 1
    26   15   16 1
    27   15   31 1
    28   15   32 1
    29   16   17 1
    30   16   33 1
    31   16   34 1
    32   17   18 1
    33   18   19 1
    34   18   35 1
    35   18   36 1
    36   19   37 1
    37   19   38 1
    38   20   21 2
    39   20   22 1
    40   23   39 1
    41   23   40 1
@<TRIPOS>MOLECULE
CHEMBL22803__1
   41    42     0     0     0
SMALL
USER_CHARGES

@<TRIPOS>ATOM
      1 C1         -0.0184    1.5028    0.0103 C.3       1 <0>        -0.1812
      2 C2          0.0021   -0.0041    0.0020 C.2       1 <0>         0.5060
      3 O1          1.0605   -0.5961   -0.0113 O.2       1 <0>        -0.5560
      4 N1         -1.1558   -0.6938    0.0094 N.am      1 <0>        -0.7224
      5 C3         -1.1360   -2.1586    0.0013 C.3       1 <0>         0.1286
      6 H1         -0.2845   -2.5164    0.5802 H         1 <0>         0.1213
      7 C4         -1.0266   -2.6644   -1.4423 C.3       1 <0>         0.0149
      8 H2         -1.9464   -2.4364   -1.9809 H         1 <0>         0.1456
      9 C5         -0.8109   -4.1789   -1.4116 C.3       1 <0>        -0.0838
     10 C6         -1.8286   -4.8276   -0.5192 C.2       1 <0>        -0.1467
     11 C7         -2.5429   -4.1726    0.3744 C.2       1 <0>        -0.1821
     12 C8         -2.4333   -2.6936    0.6111 C.3       1 <0>         0.1169
     13 H3         -3.2835   -2.1922    0.1487 H         1 <0>         0.1042
     14 N2         -2.4396   -2.4252    2.0553 N.3       1 <0>        -0.5189
     15 C9         -1.3197   -3.1051    2.7224 C.3       1 <0>         0.0066
     16 C10        -1.3292   -2.7511    4.2119 C.3       1 <0>         0.0674
     17 O2         -2.5938   -3.1113    4.7743 O.3       1 <0>        -0.3801
     18 C11        -3.7067   -2.4668    4.1487 C.3       1 <0>         0.0658
     19 C12        -3.7214   -2.8179    2.6586 C.3       1 <0>         0.0104
     20 C13        -2.0409   -6.2734   -0.6492 C.2       1 <0>         0.5089
     21 O3         -2.8623   -6.8376    0.0612 O.co2     1 <0>        -0.6720
     22 O4         -1.3967   -6.9152   -1.4681 O.co2     1 <0>        -0.6840
     23 N3          0.1095   -2.0137   -2.1085 N.4       1 <0>        -0.6275
     24 H4          1.0042    1.8801    0.0026 H         1 <0>         0.1009
     25 H5         -0.5455    1.8639   -0.8728 H         1 <0>         0.0946
     26 H6         -0.5286    1.8543    0.9071 H         1 <0>         0.1001
     27 H7         -2.0023   -0.2203    0.0200 H         1 <0>         0.4170
     28 H8         -0.9085   -4.5784   -2.4210 H         1 <0>         0.1102
     29 H9          0.1892   -4.3939   -1.0351 H         1 <0>         0.0947
     30 H10        -3.2457   -4.7323    0.9738 H         1 <0>         0.1379
     31 H11        -1.4260   -4.1834    2.6039 H         1 <0>         0.0618
     32 H12        -0.3794   -2.7803    2.2771 H         1 <0>         0.0806
     33 H13        -0.5354   -3.2978    4.7210 H         1 <0>         0.0994
     34 H14        -1.1692   -1.6796    4.3323 H         1 <0>         0.0561
     35 H15        -4.6325   -2.8079    4.6122 H         1 <0>         0.1017
     36 H16        -3.6159   -1.3871    4.2674 H         1 <0>         0.0576
     37 H17        -4.5341   -2.2835    2.1667 H         1 <0>         0.0891
     38 H18        -3.8660   -3.8917    2.5391 H         1 <0>         0.0618
     39 H19         0.9604   -2.2315   -1.6118 H         1 <0>         0.4387
     40 H20         0.1793   -2.3481   -3.0579 H         1 <0>         0.4343
     41 H21        -0.0308   -1.0145   -2.1133 H         1 <0>         0.4215
@<TRIPOS>BOND
     1    1    2 1
     2    1   24 1
     3    1   25 1
     4    1   26 1
     5    2    3 2
     6    2    4 am
     7    4    5 1
     8    4   27 1
     9    5    6 1
    10    5   12 1
    11    5    7 1
    12    7    8 1
    13    7    9 1
    14    7   23 1
    15    9   10 1
    16    9   28 1
    17    9   29 1
    18   10   11 2
    19   10   20 1
    20   11   12 1
    21   11   30 1
    22   12   13 1
    23   12   14 1
    24   14   19 1
    25   14   15 1
    26   15   16 1
    27   15   31 1
    28   15   32 1
    29   16   17 1
    30   16   33 1
    31   16   34 1
    32   17   18 1
    33   18   19 1
    34   18   35 1
    35   18   36 1
    36   19   37 1
    37   19   38 1
    38   20   21 2
    39   20   22 1
    40   23   39 1
    41   23   40 1
    42   23   41 1
@<TRIPOS>MOLECULE
CHEMBL190819
   45    46     0     0     0
SMALL
USER_CHARGES

@<TRIPOS>ATOM
      1 C1          1.1922   -2.4607    0.0309 C.3       1 <0>        -0.1728
      2 C2          0.4537   -1.9000   -1.1861 C.3       1 <0>        -0.1170
      3 C3         -1.0187   -2.3108   -1.1230 C.3       1 <0>        -0.1469
      4 C4          0.5577   -0.3735   -1.1871 C.3       1 <0>        -0.1419
      5 C5          2.0304    0.0373   -1.2445 C.3       1 <0>         0.1259
      6 H1          2.5757   -0.4514   -0.4371 H         1 <0>         0.1179
      7 C6          2.6253   -0.3839   -2.5897 C.3       1 <0>         0.0168
      8 H2          1.9762   -0.0551   -3.4013 H         1 <0>         0.1458
      9 C7          4.0301    0.2323   -2.7585 C.3       1 <0>        -0.0306
     10 H3          4.4656    0.4705   -1.7881 H         1 <0>         0.1386
     11 C8          4.8279   -0.9019   -3.4543 C.3       1 <0>        -0.1096
     12 C9          4.2187   -2.1637   -2.7937 C.3       1 <0>        -0.0536
     13 H4          4.6798   -2.3437   -1.8226 H         1 <0>         0.1396
     14 N1          2.7795   -1.8496   -2.6331 N.4       1 <0>        -0.4959
     15 C10         4.3977   -3.3628   -3.6888 C.2       1 <0>         0.4967
     16 O1          5.5047   -3.8506   -3.8402 O.co2     1 <0>        -0.6279
     17 O2          3.4354   -3.8451   -4.2614 O.co2     1 <0>        -0.6647
     18 C11         3.9720    1.4602   -3.6302 C.2       1 <0>         0.0624
     19 C12         4.3416    2.7044   -3.2707 C.2       1 <0>        -0.2630
     20 C13         4.1321    3.5575   -4.3691 C.2       1 <0>         0.0804
     21 N2          3.6538    2.8446   -5.3492 N.2       1 <0>        -0.2968
     22 O3          3.5486    1.5047   -4.9026 O.3       1 <0>        -0.0748
     23 N3          2.1380    1.4909   -1.0966 N.am      1 <0>        -0.7267
     24 C14         2.2088    2.0398    0.1322 C.2       1 <0>         0.5182
     25 O4          2.2796    1.3276    1.1114 O.2       1 <0>        -0.5310
     26 C15         2.2000    3.5385    0.2897 C.3       1 <0>        -0.1735
     27 H5          2.2550   -2.2334   -0.0525 H         1 <0>         0.0488
     28 H6          0.7938   -2.0071    0.9384 H         1 <0>         0.0819
     29 H7          1.0541   -3.5410    0.0738 H         1 <0>         0.0769
     30 H8          0.9025   -2.2953   -2.0974 H         1 <0>         0.0572
     31 H9         -1.4675   -1.9155   -0.2118 H         1 <0>         0.0648
     32 H10        -1.5449   -1.9113   -1.9900 H         1 <0>         0.0626
     33 H11        -1.0928   -3.3983   -1.1223 H         1 <0>         0.0673
     34 H12         0.0350    0.0257   -2.0562 H         1 <0>         0.0832
     35 H13         0.1054    0.0221   -0.2777 H         1 <0>         0.0957
     36 H14         4.6512   -0.9004   -4.5299 H         1 <0>         0.1050
     37 H15         5.8925   -0.8217   -3.2349 H         1 <0>         0.1235
     38 H16         2.4369   -2.2526   -1.7738 H         1 <0>         0.4221
     39 H17         4.7309    2.9964   -2.3066 H         1 <0>         0.1656
     40 H18         4.3323    4.6185   -4.3953 H         1 <0>         0.2065
     41 H19         2.1584    2.0582   -1.8832 H         1 <0>         0.4053
     42 H20         2.1321    4.0066   -0.6924 H         1 <0>         0.0783
     43 H21         1.3426    3.8354    0.8937 H         1 <0>         0.1016
     44 H22         3.1189    3.8576    0.7815 H         1 <0>         0.1014
     45 H23         2.2592   -2.2228   -3.4129 H         1 <0>         0.4366
@<TRIPOS>BOND
     1    1    2 1
     2    1   27 1
     3    1   28 1
     4    1   29 1
     5    2    3 1
     6    2    4 1
     7    2   30 1
     8    3   31 1
     9    3   32 1
    10    3   33 1
    11    4    5 1
    12    4   34 1
    13    4   35 1
    14    5    6 1
    15    5    7 1
    16    5   23 1
    17    7    8 1
    18    7   14 1
    19    7    9 1
    20    9   10 1
    21    9   11 1
    22    9   18 1
    23   11   12 1
    24   11   36 1
    25   11   37 1
    26   12   13 1
    27   12   14 1
    28   12   15 1
    29   14   38 1
    30   14   45 1
    31   15   16 2
    32   15   17 1
    33   18   22 1
    34   18   19 2
    35   19   20 1
    36   19   39 1
    37   20   21 2
    38   20   40 1
    39   21   22 1
    40   23   24 am
    41   23   41 1
    42   24   25 2
    43   24   26 1
    44   26   42 1
    45   26   43 1
    46   26   44 1
@<TRIPOS>MOLECULE
CHEMBL365976
   45    46     0     0     0
SMALL
USER_CHARGES

@<TRIPOS>ATOM
      1 C1         -0.2952    1.3720   -1.7088 C.3       1 <0>        -0.1570
      2 C2         -0.2439   -0.1453   -1.8988 C.3       1 <0>        -0.0908
      3 C3         -1.2925   -0.5659   -2.9304 C.3       1 <0>        -0.1513
      4 C4          1.1469   -0.5510   -2.3908 C.3       1 <0>        -0.1378
      5 C5          2.1882   -0.1928   -1.3285 C.3       1 <0>         0.1265
      6 H1          1.8818   -0.6033   -0.3664 H         1 <0>         0.1256
      7 C6          3.5442   -0.7802   -1.7251 C.3       1 <0>         0.0205
      8 H2          3.8518   -0.3836   -2.6926 H         1 <0>         0.1374
      9 C7          4.5983   -0.4342   -0.6572 C.3       1 <0>        -0.0312
     10 H3          4.1504    0.1633    0.1369 H         1 <0>         0.1311
     11 C8          5.0722   -1.7966   -0.1012 C.3       1 <0>        -0.1120
     12 C9          3.8966   -2.7424   -0.4534 C.3       1 <0>        -0.0421
     13 H4          3.0930   -2.6456    0.2767 H         1 <0>         0.1398
     14 N1          3.4547   -2.2551   -1.7904 N.4       1 <0>        -0.4902
     15 C10         4.3693   -4.1710   -0.5350 C.2       1 <0>         0.4974
     16 O1          4.6775   -4.7702    0.4811 O.co2     1 <0>        -0.6302
     17 O2          4.4436   -4.7276   -1.6172 O.co2     1 <0>        -0.6698
     18 C11         5.7516    0.3079   -1.2818 C.2       1 <0>         0.1009
     19 C12         6.8622   -0.2758   -1.9174 C.2       1 <0>        -0.2921
     20 C13         7.6700    0.7146   -2.3425 C.2       1 <0>         0.0636
     21 O3          7.1088    1.8839   -1.9985 O.3       1 <0>        -0.0712
     22 N2          5.8911    1.6025   -1.3324 N.2       1 <0>        -0.3030
     23 N3          2.2988    1.2643   -1.2248 N.am      1 <0>        -0.7180
     24 C14         2.2269    1.8614   -0.0187 C.2       1 <0>         0.5219
     25 O4          2.0908    1.1910    0.9828 O.2       1 <0>        -0.5331
     26 C15         2.3158    3.3622    0.0856 C.3       1 <0>        -0.1736
     27 H5          0.3441    1.6553   -0.8726 H         1 <0>         0.0640
     28 H6          0.0546    1.8638   -2.6165 H         1 <0>         0.0548
     29 H7         -1.3207    1.6778   -1.5020 H         1 <0>         0.0553
     30 H8         -0.4510   -0.6376   -0.9486 H         1 <0>         0.0759
     31 H9         -1.0853   -0.0735   -3.8806 H         1 <0>         0.0568
     32 H10        -1.2560   -1.6468   -3.0658 H         1 <0>         0.0572
     33 H11        -2.2833   -0.2769   -2.5799 H         1 <0>         0.0609
     34 H12         1.1687   -1.6254   -2.5732 H         1 <0>         0.0738
     35 H13         1.3742   -0.0207   -3.3156 H         1 <0>         0.0859
     36 H14         5.9879   -2.1183   -0.5974 H         1 <0>         0.1020
     37 H15         5.2151   -1.7442    0.9781 H         1 <0>         0.1198
     38 H16         2.5030   -2.5383   -1.9698 H         1 <0>         0.4222
     39 H17         7.0371   -1.3342   -2.0424 H         1 <0>         0.1652
     40 H18         8.6053    0.5896   -2.8678 H         1 <0>         0.2186
     41 H19         2.4237    1.7994   -2.0242 H         1 <0>         0.4097
     42 H20         2.4355    3.7892   -0.9101 H         1 <0>         0.0796
     43 H21         1.4038    3.7495    0.5398 H         1 <0>         0.1000
     44 H22         3.1725    3.6334    0.7026 H         1 <0>         0.1013
     45 H23         4.0661   -2.6092   -2.5107 H         1 <0>         0.4357
@<TRIPOS>BOND
     1    1    2 1
     2    1   27 1
     3    1   28 1
     4    1   29 1
     5    2    3 1
     6    2    4 1
     7    2   30 1
     8    3   31 1
     9    3   32 1
    10    3   33 1
    11    4    5 1
    12    4   34 1
    13    4   35 1
    14    5    6 1
    15    5    7 1
    16    5   23 1
    17    7    8 1
    18    7   14 1
    19    7    9 1
    20    9   10 1
    21    9   11 1
    22    9   18 1
    23   11   12 1
    24   11   36 1
    25   11   37 1
    26   12   13 1
    27   12   14 1
    28   12   15 1
    29   14   38 1
    30   14   45 1
    31   15   16 2
    32   15   17 1
    33   18   22 2
    34   18   19 1
    35   19   20 2
    36   19   39 1
    37   20   21 1
    38   20   40 1
    39   21   22 1
    40   23   24 am
    41   23   41 1
    42   24   25 2
    43   24   26 1
    44   26   42 1
    45   26   43 1
    46   26   44 1
@<TRIPOS>MOLECULE
CHEMBL25549
   50    51     0     0     0
SMALL
USER_CHARGES

@<TRIPOS>ATOM
      1 C1          0.0247    1.3963   -0.0903 C.3       1 <0>        -0.1811
      2 C2          0.0231   -0.1106   -0.0716 C.2       1 <0>         0.5046
      3 O1          1.0726   -0.7183   -0.0814 O.2       1 <0>        -0.5573
      4 N1         -1.1447   -0.7829   -0.0438 N.am      1 <0>        -0.7203
      5 C3         -1.1463   -2.2478   -0.0256 C.3       1 <0>         0.1229
      6 H1         -0.2960   -2.6077    0.5538 H         1 <0>         0.1164
      7 C4         -1.0546   -2.7810   -1.4606 C.3       1 <0>         0.0156
      8 H2         -1.9748   -2.5491   -1.9969 H         1 <0>         0.1427
      9 C5         -0.8609   -4.2977   -1.4040 C.3       1 <0>        -0.0781
     10 C6         -1.8816   -4.9152   -0.4931 C.2       1 <0>        -0.1845
     11 C7         -2.5798   -4.2339    0.3934 C.2       1 <0>        -0.1397
     12 C8         -2.4469   -2.7526    0.6026 C.3       1 <0>         0.1143
     13 H3         -3.2930   -2.2471    0.1371 H         1 <0>         0.1250
     14 N2         -2.4390   -2.4582    2.0418 N.3       1 <0>        -0.5284
     15 C9         -1.3176   -3.1479    2.7180 C.3       1 <0>         0.0523
     16 C10        -1.4230   -3.1011    4.2180 C.3       1 <0>        -0.1176
     17 C11        -2.1349   -4.3829    4.6990 C.3       1 <0>        -0.1252
     18 C12        -3.5803   -4.3122    4.5152 C.3       1 <0>        -0.1181
     19 C13        -3.9716   -4.1471    3.0317 C.3       1 <0>        -0.1583
     20 C14        -3.7686   -2.7084    2.6417 C.3       1 <0>         0.0966
     21 H4         -3.8767   -2.0850    3.5293 H         1 <0>         0.0950
     22 C15        -4.8478   -2.3141    1.6313 C.3       1 <0>         0.0659
     23 O2         -4.8249   -3.2246    0.5302 O.3       1 <0>        -0.5516
     24 C16        -2.1159   -6.3598   -0.5956 C.2       1 <0>         0.5124
     25 O3         -2.9403   -6.8990    0.1305 O.co2     1 <0>        -0.6766
     26 O4         -1.4869   -7.0256   -1.4072 O.co2     1 <0>        -0.6930
     27 N3          0.0861   -2.1591   -2.1462 N.4       1 <0>        -0.6285
     28 H5          1.0526    1.7583   -0.1119 H         1 <0>         0.0996
     29 H6         -0.5034    1.7492   -0.9761 H         1 <0>         0.0933
     30 H7         -0.4739    1.7713    0.8035 H         1 <0>         0.0992
     31 H8         -1.9841   -0.2968   -0.0359 H         1 <0>         0.4143
     32 H9         -0.9715   -4.7137   -2.4054 H         1 <0>         0.1036
     33 H10         0.1386   -4.5206   -1.0306 H         1 <0>         0.0873
     34 H11        -3.2864   -4.7722    1.0077 H         1 <0>         0.1577
     35 H12        -1.3024   -4.1901    2.3991 H         1 <0>         0.0519
     36 H13        -0.3821   -2.6767    2.4165 H         1 <0>         0.0649
     37 H14        -0.4252   -3.0509    4.6539 H         1 <0>         0.0695
     38 H15        -2.0010   -2.2268    4.5175 H         1 <0>         0.0719
     39 H16        -1.7482   -5.2339    4.1384 H         1 <0>         0.0641
     40 H17        -1.9197   -4.5312    5.7572 H         1 <0>         0.0608
     41 H18        -4.0311   -5.2269    4.9003 H         1 <0>         0.0622
     42 H19        -3.9677   -3.4640    5.0797 H         1 <0>         0.0567
     43 H20        -3.3416   -4.7866    2.4134 H         1 <0>         0.0967
     44 H21        -5.0185   -4.4189    2.8966 H         1 <0>         0.0732
     45 H22        -5.8256   -2.3494    2.1117 H         1 <0>         0.0558
     46 H23        -4.6563   -1.3033    1.2710 H         1 <0>         0.0486
     47 H24        -5.4845   -3.0348   -0.1510 H         1 <0>         0.3731
     48 H25         0.9372   -2.3804   -1.6515 H         1 <0>         0.4379
     49 H26         0.1442   -2.5115   -3.0898 H         1 <0>         0.4324
     50 H27        -0.0396   -1.1582   -2.1680 H         1 <0>         0.4198
@<TRIPOS>BOND
     1    1    2 1
     2    1   28 1
     3    1   29 1
     4    1   30 1
     5    2    3 2
     6    2    4 am
     7    4    5 1
     8    4   31 1
     9    5    6 1
    10    5   12 1
    11    5    7 1
    12    7    8 1
    13    7    9 1
    14    7   27 1
    15    9   10 1
    16    9   32 1
    17    9   33 1
    18   10   11 2
    19   10   24 1
    20   11   12 1
    21   11   34 1
    22   12   13 1
    23   12   14 1
    24   14   20 1
    25   14   15 1
    26   15   16 1
    27   15   35 1
    28   15   36 1
    29   16   17 1
    30   16   37 1
    31   16   38 1
    32   17   18 1
    33   17   39 1
    34   17   40 1
    35   18   19 1
    36   18   41 1
    37   18   42 1
    38   19   20 1
    39   19   43 1
    40   19   44 1
    41   20   21 1
    42   20   22 1
    43   22   23 1
    44   22   45 1
    45   22   46 1
    46   23   47 1
    47   24   25 2
    48   24   26 1
    49   27   48 1
    50   27   49 1
    51   27   50 1
@<TRIPOS>MOLECULE
CHEMBL25549__1
   50    51     0     0     0
SMALL
USER_CHARGES

@<TRIPOS>ATOM
      1 C1         -0.3361    0.9228    0.7277 C.3       1 <0>        -0.1752
      2 C2         -0.3178   -0.5594    0.4563 C.2       1 <0>         0.5027
      3 O1         -0.4529   -1.3450    1.3704 O.2       1 <0>        -0.4994
      4 N1         -0.1513   -1.0120   -0.8022 N.am      1 <0>        -0.7508
      5 C3         -0.2439   -2.4469   -1.0828 C.3       1 <0>         0.1207
      6 H1         -0.9174   -2.9174   -0.3665 H         1 <0>         0.1202
      7 C4          1.1474   -3.0834   -0.9767 C.3       1 <0>         0.0951
      8 H2          1.7780   -2.7227   -1.7893 H         1 <0>         0.0407
      9 C5          0.9958   -4.6025   -1.0792 C.3       1 <0>        -0.0793
     10 C6          0.1535   -4.9586   -2.2695 C.2       1 <0>        -0.1072
     11 C7         -0.6283   -4.1020   -2.8961 C.2       1 <0>        -0.2093
     12 C8         -0.7732   -2.6599   -2.5025 C.3       1 <0>         0.0737
     13 H3         -0.2059   -2.0398   -3.1965 H         1 <0>         0.1432
     14 N2         -2.1901   -2.2756   -2.5567 N.4       1 <0>        -0.3762
     15 C9         -2.9033   -2.9448   -1.4477 C.3       1 <0>        -0.0127
     16 C10        -4.3972   -2.9517   -1.6274 C.3       1 <0>        -0.1345
     17 C11        -4.7978   -4.2836   -2.2988 C.3       1 <0>        -0.1329
     18 C12        -4.5380   -4.2762   -3.7328 C.3       1 <0>        -0.1278
     19 C13        -3.0409   -4.0729   -4.0525 C.3       1 <0>        -0.1657
     20 C14        -2.7192   -2.6114   -3.8959 C.3       1 <0>         0.0431
     21 H4         -3.6260   -2.0321   -4.0701 H         1 <0>         0.1370
     22 C15        -1.6796   -2.2205   -4.9482 C.3       1 <0>         0.0415
     23 O2         -0.5462   -3.0843   -4.8418 O.3       1 <0>        -0.5309
     24 C16         0.2036   -6.3388   -2.7641 C.2       1 <0>         0.5067
     25 O3         -0.4691   -6.6666   -3.7323 O.co2     1 <0>        -0.6796
     26 O4          0.9182   -7.1623   -2.2085 O.co2     1 <0>        -0.6730
     27 N3          1.7547   -2.7301    0.3133 N.3       1 <0>        -0.8291
     28 H5          0.6616    1.2512    1.0192 H         1 <0>         0.0981
     29 H6         -0.6445    1.4534   -0.1731 H         1 <0>         0.0771
     30 H7         -1.0385    1.1360    1.5335 H         1 <0>         0.0979
     31 H8          0.0299   -0.3877   -1.5221 H         1 <0>         0.3979
     32 H9          1.9807   -5.0576   -1.1843 H         1 <0>         0.0900
     33 H10         0.5202   -4.9801   -0.1740 H         1 <0>         0.0906
     34 H11        -1.2008   -4.4583   -3.7397 H         1 <0>         0.1906
     35 H12        -2.5537   -3.9748   -1.3768 H         1 <0>         0.1339
     36 H13        -2.6644   -2.4310   -0.5165 H         1 <0>         0.1231
     37 H14        -4.8846   -2.8686   -0.6560 H         1 <0>         0.1051
     38 H15        -4.6950   -2.1165   -2.2613 H         1 <0>         0.0795
     39 H16        -4.2320   -5.0949   -1.8409 H         1 <0>         0.0780
     40 H17        -5.8608   -4.4579   -2.1327 H         1 <0>         0.0796
     41 H18        -4.8646   -5.2259   -4.1565 H         1 <0>         0.0839
     42 H19        -5.1105   -3.4703   -4.1920 H         1 <0>         0.0635
     43 H20        -2.4347   -4.6587   -3.3615 H         1 <0>         0.1357
     44 H21        -2.8379   -4.3862   -5.0766 H         1 <0>         0.1116
     45 H22        -2.1160   -2.3146   -5.9426 H         1 <0>         0.0914
     46 H23        -1.3670   -1.1892   -4.7846 H         1 <0>         0.0591
     47 H24         0.1853   -2.8475   -5.4283 H         1 <0>         0.3803
     48 H25         2.6725   -3.1390    0.4050 H         1 <0>         0.3494
     49 H26         1.7912   -1.7290    0.4337 H         1 <0>         0.3351
     50 H27        -2.2574   -1.2776   -2.4247 H         1 <0>         0.4074
@<TRIPOS>BOND
     1    1    2 1
     2    1   28 1
     3    1   29 1
     4    1   30 1
     5    2    3 2
     6    2    4 am
     7    4    5 1
     8    4   31 1
     9    5    6 1
    10    5   12 1
    11    5    7 1
    12    7    8 1
    13    7    9 1
    14    7   27 1
    15    9   10 1
    16    9   32 1
    17    9   33 1
    18   10   11 2
    19   10   24 1
    20   11   12 1
    21   11   34 1
    22   12   13 1
    23   12   14 1
    24   14   20 1
    25   14   15 1
    26   14   50 1
    27   15   16 1
    28   15   35 1
    29   15   36 1
    30   16   17 1
    31   16   37 1
    32   16   38 1
    33   17   18 1
    34   17   39 1
    35   17   40 1
    36   18   19 1
    37   18   41 1
    38   18   42 1
    39   19   20 1
    40   19   43 1
    41   19   44 1
    42   20   21 1
    43   20   22 1
    44   22   23 1
    45   22   45 1
    46   22   46 1
    47   23   47 1
    48   24   25 2
    49   24   26 1
    50   27   48 1
    51   27   49 1
@<TRIPOS>MOLECULE
CHEMBL294169
   58    59     0     0     0
SMALL
USER_CHARGES

@<TRIPOS>ATOM
      1 C1          0.7933   -0.2382   -1.2816 C.3       1 <0>        -0.1623
      2 C2         -0.0403   -0.0089   -0.0193 C.3       1 <0>        -0.1078
      3 C3          0.7890   -0.3755    1.2131 C.3       1 <0>         0.1496
      4 C4          1.1713   -1.8577    1.1525 C.3       1 <0>        -0.1335
      5 C5          1.8794   -2.2512    2.4509 C.3       1 <0>        -0.1199
      6 C6          0.9308   -2.0451    3.6340 C.3       1 <0>        -0.1385
      7 C7          0.5457   -0.5650    3.7227 C.3       1 <0>         0.0967
      8 N1         -0.0037   -0.1408    2.4277 N.am      1 <0>        -0.6033
      9 C8         -1.2118    0.4522    2.3554 C.2       1 <0>         0.5037
     10 O1         -1.6988    0.7063    1.2741 O.2       1 <0>        -0.4946
     11 C9         -1.9575    0.7996    3.6180 C.3       1 <0>         0.1304
     12 C10        -2.9760   -0.2994    3.9276 C.3       1 <0>        -0.1067
     13 H1         -3.6229   -0.4720    3.0674 H         1 <0>         0.1143
     14 C11        -2.2545   -1.6082    4.3345 C.3       1 <0>        -0.0919
     15 C12        -3.3334   -2.3503    5.1617 C.3       1 <0>        -0.1566
     16 C13        -4.0392   -1.2305    5.9540 C.3       1 <0>        -0.1134
     17 C14        -3.8144    0.0751    5.1672 C.3       1 <0>         0.1189
     18 H2         -3.2714    0.7925    5.7824 H         1 <0>         0.1028
     19 N2         -5.0998    0.6416    4.7511 N.pl3     1 <0>        -0.6372
     20 C15        -5.7434    1.4501    5.5455 C.cat     1 <0>         0.7323
     21 N3         -5.2159    1.7712    6.7739 N.pl3     1 <0>        -0.8143
     22 N4         -6.9496    1.9818    5.1551 N.pl3     1 <0>        -0.8218
     23 C16        -2.6908   -3.3371    6.1021 C.2       1 <0>         0.4969
     24 O2         -3.2278   -3.6070    7.1629 O.co2     1 <0>        -0.6943
     25 O3         -1.6338   -3.8657    5.8021 O.co2     1 <0>        -0.6813
     26 N5         -2.6550    2.0752    3.4380 N.am      1 <0>        -0.7298
     27 C17        -3.5804    2.2060    2.4669 C.2       1 <0>         0.4991
     28 O4         -3.8357    1.2677    1.7421 O.2       1 <0>        -0.4911
     29 C18        -4.2980    3.5182    2.2817 C.3       1 <0>        -0.1751
     30 H3          1.1522   -1.2673   -1.2981 H         1 <0>         0.0549
     31 H4          0.1777   -0.0539   -2.1621 H         1 <0>         0.0544
     32 H5          1.6440    0.4433   -1.2840 H         1 <0>         0.0488
     33 H6         -0.3321    1.0397    0.0379 H         1 <0>         0.0802
     34 H7         -0.9332   -0.6331   -0.0553 H         1 <0>         0.0740
     35 H8          1.6909    0.2359    1.2416 H         1 <0>         0.0697
     36 H9          0.2715   -2.4609    1.0316 H         1 <0>         0.0685
     37 H10         1.8394   -2.0268    0.3080 H         1 <0>         0.0751
     38 H11         2.1744   -3.2993    2.4004 H         1 <0>         0.0684
     39 H12         2.7657   -1.6307    2.5837 H         1 <0>         0.0603
     40 H13         0.0332   -2.6465    3.4897 H         1 <0>         0.0836
     41 H14         1.4277   -2.3476    4.5558 H         1 <0>         0.0811
     42 H15        -0.2056   -0.4289    4.5006 H         1 <0>         0.0887
     43 H16         1.4291    0.0290    3.9570 H         1 <0>         0.0681
     44 H17        -1.2522    0.8846    4.4448 H         1 <0>         0.1109
     45 H18        -1.9777   -2.1868    3.4531 H         1 <0>         0.0797
     46 H19        -1.3789   -1.3923    4.9468 H         1 <0>         0.0843
     47 H20        -4.0398   -2.8546    4.5023 H         1 <0>         0.0736
     48 H21        -5.1062   -1.4408    6.0277 H         1 <0>         0.0713
     49 H22        -3.6050   -1.1473    6.9503 H         1 <0>         0.0930
     50 H23        -4.3649    1.3961    7.0493 H         1 <0>         0.4376
     51 H24        -5.6949    2.3729    7.3651 H         1 <0>         0.4337
     52 H25        -7.3218    1.7552    4.2885 H         1 <0>         0.4357
     53 H26        -7.4286    2.5834    5.7463 H         1 <0>         0.4346
     54 H27        -2.4509    2.8256    4.0177 H         1 <0>         0.4018
     55 H28        -3.5724    4.3011    2.0612 H         1 <0>         0.0894
     56 H29        -5.0032    3.4331    1.4550 H         1 <0>         0.0942
     57 H30        -4.8373    3.7695    3.1950 H         1 <0>         0.0757
     58 H31        -5.4719    0.4150    3.8845 H         1 <0>         0.4372
@<TRIPOS>BOND
     1    1    2 1
     2    1   30 1
     3    1   31 1
     4    1   32 1
     5    2    3 1
     6    2   33 1
     7    2   34 1
     8    3    8 1
     9    3    4 1
    10    3   35 1
    11    4    5 1
    12    4   36 1
    13    4   37 1
    14    5    6 1
    15    5   38 1
    16    5   39 1
    17    6    7 1
    18    6   40 1
    19    6   41 1
    20    7    8 1
    21    7   42 1
    22    7   43 1
    23    8    9 am
    24    9   10 2
    25    9   11 1
    26   11   12 1
    27   11   26 1
    28   11   44 1
    29   12   13 1
    30   12   17 1
    31   12   14 1
    32   14   15 1
    33   14   45 1
    34   14   46 1
    35   15   16 1
    36   15   23 1
    37   15   47 1
    38   16   17 1
    39   16   48 1
    40   16   49 1
    41   17   18 1
    42   17   19 1
    43   19   20 2
    44   19   58 1
    45   20   21 1
    46   20   22 1
    47   21   50 1
    48   21   51 1
    49   22   52 1
    50   22   53 1
    51   23   24 2
    52   23   25 1
    53   26   27 am
    54   26   54 1
    55   27   28 2
    56   27   29 1
    57   29   55 1
    58   29   56 1
    59   29   57 1
@<TRIPOS>MOLECULE
CHEMBL294169__1
   58    59     0     0     0
SMALL
USER_CHARGES

@<TRIPOS>ATOM
      1 C1          1.0303   -0.3073   -1.1241 C.3       1 <0>        -0.1621
      2 C2          0.1799   -0.0721    0.1258 C.3       1 <0>        -0.1081
      3 C3          1.0547   -0.2173    1.3726 C.3       1 <0>         0.1502
      4 C4          1.6405   -1.6318    1.4270 C.3       1 <0>        -0.1356
      5 C5          2.3993   -1.8151    2.7434 C.3       1 <0>        -0.1192
      6 C6          1.4334   -1.6468    3.9185 C.3       1 <0>        -0.1423
      7 C7          0.8453   -0.2326    3.8924 C.3       1 <0>         0.0998
      8 N1          0.2394    0.0034    2.5748 N.am      1 <0>        -0.6076
      9 C8         -1.0399    0.4145    2.4710 C.2       1 <0>         0.5025
     10 O1         -1.5707    0.4758    1.3822 O.2       1 <0>        -0.4860
     11 C9         -1.8109    0.7979    3.7077 C.3       1 <0>         0.1290
     12 C10        -2.8333   -0.2938    4.0303 C.3       1 <0>        -0.0988
     13 H1         -3.4828   -0.4623    3.1712 H         1 <0>         0.1146
     14 C11        -2.1099   -1.5983    4.4080 C.3       1 <0>        -0.1124
     15 C12        -2.5362   -1.9365    5.8516 C.3       1 <0>        -0.1530
     16 C13        -3.8934   -1.2110    6.0266 C.3       1 <0>        -0.1133
     17 C14        -3.6747    0.1159    5.2566 C.3       1 <0>         0.1178
     18 H2         -3.1278    0.8290    5.8735 H         1 <0>         0.1064
     19 N2         -4.9579    0.6812    4.8324 N.pl3     1 <0>        -0.6355
     20 C15        -5.5942    1.5103    5.6113 C.cat     1 <0>         0.7328
     21 N3         -5.0611    1.8542    6.8310 N.pl3     1 <0>        -0.8161
     22 N4         -6.7984    2.0409    5.2131 N.pl3     1 <0>        -0.8212
     23 C16        -2.7085   -3.4245    6.0158 C.2       1 <0>         0.4961
     24 O2         -2.3300   -3.9731    7.0368 O.co2     1 <0>        -0.6891
     25 O3         -3.2263   -4.0800    5.1276 O.co2     1 <0>        -0.6855
     26 N5         -2.5072    2.0658    3.4756 N.am      1 <0>        -0.7310
     27 C17        -3.4136    2.1650    2.4831 C.2       1 <0>         0.4932
     28 O4         -3.6528    1.2046    1.7821 O.2       1 <0>        -0.4834
     29 C18        -4.1298    3.4692    2.2444 C.3       1 <0>        -0.1750
     30 H3          1.5071   -1.2854   -1.0604 H         1 <0>         0.0553
     31 H4          0.3944   -0.2699   -2.0086 H         1 <0>         0.0554
     32 H5          1.7954    0.4660   -1.1938 H         1 <0>         0.0485
     33 H6         -0.2432    0.9320    0.0938 H         1 <0>         0.0770
     34 H7         -0.6261   -0.8050    0.1601 H         1 <0>         0.0779
     35 H8          1.8624    0.5139    1.3395 H         1 <0>         0.0696
     36 H9          0.8337   -2.3622    1.3673 H         1 <0>         0.0707
     37 H10         2.3241   -1.7748    0.5901 H         1 <0>         0.0771
     38 H11         2.8379   -2.8125    2.7738 H         1 <0>         0.0693
     39 H12         3.1903   -1.0684    2.8136 H         1 <0>         0.0625
     40 H13         0.6286   -2.3772    3.8354 H         1 <0>         0.0774
     41 H14         1.9696   -1.8006    4.8550 H         1 <0>         0.0803
     42 H15         0.0838   -0.1391    4.6667 H         1 <0>         0.0860
     43 H16         1.6373    0.4959    4.0661 H         1 <0>         0.0712
     44 H17        -1.1222    0.9095    4.5452 H         1 <0>         0.1098
     45 H18        -2.4090   -2.4001    3.7329 H         1 <0>         0.0940
     46 H19        -1.0306   -1.4537    4.3616 H         1 <0>         0.0731
     47 H20        -1.8051   -1.5552    6.5644 H         1 <0>         0.0737
     48 H21        -4.7011   -1.7889    5.5774 H         1 <0>         0.0878
     49 H22        -4.0950   -1.0177    7.0803 H         1 <0>         0.0746
     50 H23        -4.2115    1.4799    7.1119 H         1 <0>         0.4367
     51 H24        -5.5346    2.4712    7.4106 H         1 <0>         0.4337
     52 H25        -7.1744    1.7982    4.3525 H         1 <0>         0.4363
     53 H26        -7.2719    2.6579    5.7928 H         1 <0>         0.4347
     54 H27        -2.3159    2.8338    4.0363 H         1 <0>         0.4015
     55 H28        -3.4015    4.2470    2.0146 H         1 <0>         0.0889
     56 H29        -4.8185    3.3576    1.4069 H         1 <0>         0.0948
     57 H30        -4.6875    3.7466    3.1389 H         1 <0>         0.0760
     58 H31        -5.3339    0.4386    3.9718 H         1 <0>         0.4386
@<TRIPOS>BOND
     1    1    2 1
     2    1   30 1
     3    1   31 1
     4    1   32 1
     5    2    3 1
     6    2   33 1
     7    2   34 1
     8    3    8 1
     9    3    4 1
    10    3   35 1
    11    4    5 1
    12    4   36 1
    13    4   37 1
    14    5    6 1
    15    5   38 1
    16    5   39 1
    17    6    7 1
    18    6   40 1
    19    6   41 1
    20    7    8 1
    21    7   42 1
    22    7   43 1
    23    8    9 am
    24    9   10 2
    25    9   11 1
    26   11   12 1
    27   11   26 1
    28   11   44 1
    29   12   13 1
    30   12   17 1
    31   12   14 1
    32   14   15 1
    33   14   45 1
    34   14   46 1
    35   15   16 1
    36   15   23 1
    37   15   47 1
    38   16   17 1
    39   16   48 1
    40   16   49 1
    41   17   18 1
    42   17   19 1
    43   19   20 2
    44   19   58 1
    45   20   21 1
    46   20   22 1
    47   21   50 1
    48   21   51 1
    49   22   52 1
    50   22   53 1
    51   23   24 2
    52   23   25 1
    53   26   27 am
    54   26   54 1
    55   27   28 2
    56   27   29 1
    57   29   55 1
    58   29   56 1
    59   29   57 1
@<TRIPOS>MOLECULE
CHEMBL294169__2
   58    59     0     0     0
SMALL
USER_CHARGES

@<TRIPOS>ATOM
      1 C1          0.9363   -0.2393   -1.1990 C.3       1 <0>        -0.1619
      2 C2          0.0674    0.0203    0.0333 C.3       1 <0>        -0.1127
      3 C3          0.7525   -0.5606    1.2719 C.3       1 <0>         0.1482
      4 C4          0.9272   -2.0728    1.1004 C.3       1 <0>        -0.1345
      5 C5          1.4844   -2.6681    2.3955 C.3       1 <0>        -0.1207
      6 C6          0.4964   -2.4226    3.5382 C.3       1 <0>        -0.1365
      7 C7          0.3167   -0.9144    3.7373 C.3       1 <0>         0.1057
      8 N1         -0.0796   -0.3122    2.4571 N.am      1 <0>        -0.6072
      9 C8         -1.1854    0.4535    2.3715 C.2       1 <0>         0.5068
     10 O1         -1.5576    0.8627    1.2922 O.2       1 <0>        -0.5026
     11 C9         -1.9594    0.8013    3.6169 C.3       1 <0>         0.1283
     12 C10        -1.2640    1.9538    4.3444 C.3       1 <0>        -0.1040
     13 H1         -0.2364    1.6848    4.5887 H         1 <0>         0.1043
     14 C11        -1.2971    3.2388    3.4802 C.3       1 <0>        -0.0847
     15 C12        -1.1419    4.3634    4.5340 C.3       1 <0>        -0.1575
     16 C13        -1.9655    3.8676    5.7405 C.3       1 <0>        -0.1133
     17 C14        -2.0412    2.3331    5.6218 C.3       1 <0>         0.1117
     18 H2         -3.0806    2.0167    5.5344 H         1 <0>         0.1084
     19 N2         -1.4215    1.7051    6.7913 N.pl3     1 <0>        -0.6450
     20 C15        -2.1321    1.4713    7.8587 C.cat     1 <0>         0.7376
     21 N3         -3.4632    1.8141    7.8870 N.pl3     1 <0>        -0.8114
     22 N4         -1.5505    0.8819    8.9562 N.pl3     1 <0>        -0.8194
     23 C16        -1.7036    5.6594    4.0088 C.2       1 <0>         0.4948
     24 O2         -2.1781    6.4754    4.7806 O.co2     1 <0>        -0.6932
     25 O3         -1.6837    5.8920    2.8121 O.co2     1 <0>        -0.6807
     26 N5         -3.3191    1.2049    3.2502 N.am      1 <0>        -0.7142
     27 C17        -4.2969    0.2810    3.1667 C.2       1 <0>         0.5180
     28 O4         -4.0737   -0.8684    3.4829 O.2       1 <0>        -0.5480
     29 C18        -5.6674    0.6762    2.6806 C.3       1 <0>        -0.1776
     30 H3          1.1438   -1.3063   -1.2790 H         1 <0>         0.0523
     31 H4          0.4094    0.0964   -2.0922 H         1 <0>         0.0577
     32 H5          1.8745    0.3072   -1.1036 H         1 <0>         0.0516
     33 H6         -0.0679    1.0941    0.1629 H         1 <0>         0.0878
     34 H7         -0.9045   -0.4548   -0.1008 H         1 <0>         0.0725
     35 H8          1.7270   -0.0908    1.4046 H         1 <0>         0.0738
     36 H9         -0.0378   -2.5276    0.8766 H         1 <0>         0.0672
     37 H10         1.6205   -2.2685    0.2823 H         1 <0>         0.0795
     38 H11         1.6329   -3.7404    2.2679 H         1 <0>         0.0677
     39 H12         2.4377   -2.1953    2.6318 H         1 <0>         0.0652
     40 H13        -0.4646   -2.8740    3.2915 H         1 <0>         0.0696
     41 H14         0.8830   -2.8672    4.4552 H         1 <0>         0.0750
     42 H15        -0.4589   -0.7339    4.4817 H         1 <0>         0.0756
     43 H16         1.2566   -0.4755    4.0722 H         1 <0>         0.0718
     44 H17        -2.0029   -0.0685    4.2724 H         1 <0>         0.1113
     45 H18        -0.4655    3.2521    2.7758 H         1 <0>         0.0821
     46 H19        -2.2493    3.3282    2.9572 H         1 <0>         0.0808
     47 H20        -0.0947    4.4848    4.8109 H         1 <0>         0.0759
     48 H21        -1.4689    4.1442    6.6705 H         1 <0>         0.0741
     49 H22        -2.9674    4.2957    5.7100 H         1 <0>         0.0941
     50 H23        -3.8735    2.2300    7.1127 H         1 <0>         0.4381
     51 H24        -3.9920    1.6401    8.6814 H         1 <0>         0.4351
     52 H25        -0.6114    0.6401    8.9363 H         1 <0>         0.4357
     53 H26        -2.0794    0.7080    9.7506 H         1 <0>         0.4358
     54 H27        -3.5157    2.1370    3.0674 H         1 <0>         0.4144
     55 H28        -5.5933    1.0734    1.6682 H         1 <0>         0.0967
     56 H29        -6.3191   -0.1975    2.6813 H         1 <0>         0.0946
     57 H30        -6.0812    1.4387    3.3406 H         1 <0>         0.0909
     58 H31        -0.4823    1.4632    6.7714 H         1 <0>         0.4347
@<TRIPOS>BOND
     1    1    2 1
     2    1   30 1
     3    1   31 1
     4    1   32 1
     5    2    3 1
     6    2   33 1
     7    2   34 1
     8    3    8 1
     9    3    4 1
    10    3   35 1
    11    4    5 1
    12    4   36 1
    13    4   37 1
    14    5    6 1
    15    5   38 1
    16    5   39 1
    17    6    7 1
    18    6   40 1
    19    6   41 1
    20    7    8 1
    21    7   42 1
    22    7   43 1
    23    8    9 am
    24    9   10 2
    25    9   11 1
    26   11   12 1
    27   11   26 1
    28   11   44 1
    29   12   13 1
    30   12   17 1
    31   12   14 1
    32   14   15 1
    33   14   45 1
    34   14   46 1
    35   15   16 1
    36   15   23 1
    37   15   47 1
    38   16   17 1
    39   16   48 1
    40   16   49 1
    41   17   18 1
    42   17   19 1
    43   19   20 2
    44   19   58 1
    45   20   21 1
    46   20   22 1
    47   21   50 1
    48   21   51 1
    49   22   52 1
    50   22   53 1
    51   23   24 2
    52   23   25 1
    53   26   27 am
    54   26   54 1
    55   27   28 2
    56   27   29 1
    57   29   55 1
    58   29   56 1
    59   29   57 1
@<TRIPOS>MOLECULE
CHEMBL294169__3
   58    59     0     0     0
SMALL
USER_CHARGES

@<TRIPOS>ATOM
      1 C1          0.7906   -0.3073   -1.2702 C.3       1 <0>        -0.1621
      2 C2         -0.0401   -0.0233   -0.0171 C.3       1 <0>        -0.1120
      3 C3          0.6289   -0.6722    1.1962 C.3       1 <0>         0.1476
      4 C4          0.7083   -2.1880    0.9893 C.3       1 <0>        -0.1342
      5 C5          1.2497   -2.8448    2.2612 C.3       1 <0>        -0.1210
      6 C6          0.2977   -2.5656    3.4265 C.3       1 <0>        -0.1362
      7 C7          0.2136   -1.0541    3.6610 C.3       1 <0>         0.1050
      8 N1         -0.1666   -0.4005    2.4012 N.am      1 <0>        -0.6055
      9 C8         -1.2250    0.4325    2.3520 C.2       1 <0>         0.5080
     10 O1         -1.5893    0.8879    1.2886 O.2       1 <0>        -0.5071
     11 C9         -1.9558    0.7981    3.6182 C.3       1 <0>         0.1261
     12 C10        -1.1797    1.8895    4.3580 C.3       1 <0>        -0.0948
     13 H1         -0.1723    1.5415    4.5862 H         1 <0>         0.1027
     14 C11        -1.1149    3.1645    3.4990 C.3       1 <0>        -0.1112
     15 C12        -1.8135    4.2769    4.3080 C.3       1 <0>        -0.1539
     16 C13        -1.7063    3.8016    5.7783 C.3       1 <0>        -0.1124
     17 C14        -1.9146    2.2707    5.6597 C.3       1 <0>         0.1106
     18 H2         -2.9760    2.0352    5.5814 H         1 <0>         0.1122
     19 N2         -1.3182    1.5806    6.8061 N.pl3     1 <0>        -0.6435
     20 C15        -2.0297    1.3587    7.8755 C.cat     1 <0>         0.7382
     21 N3         -3.3399    1.7722    7.9275 N.pl3     1 <0>        -0.8132
     22 N4         -1.4700    0.7111    8.9513 N.pl3     1 <0>        -0.8186
     23 C16        -1.0982    5.5907    4.1249 C.2       1 <0>         0.4968
     24 O2         -1.7380    6.6217    4.0065 O.co2     1 <0>        -0.6865
     25 O3          0.1202    5.6225    4.0953 O.co2     1 <0>        -0.6865
     26 N5         -3.2942    1.2914    3.2845 N.am      1 <0>        -0.7134
     27 C17        -4.3278    0.4307    3.1991 C.2       1 <0>         0.5173
     28 O4         -4.1700   -0.7369    3.4868 O.2       1 <0>        -0.5469
     29 C18        -5.6796    0.9190    2.7461 C.3       1 <0>        -0.1773
     30 H3          0.9314   -1.3830   -1.3766 H         1 <0>         0.0525
     31 H4          0.2703    0.0795   -2.1464 H         1 <0>         0.0573
     32 H5          1.7619    0.1791   -1.1801 H         1 <0>         0.0522
     33 H6         -0.1075    1.0535    0.1378 H         1 <0>         0.0872
     34 H7         -1.0412   -0.4355   -0.1438 H         1 <0>         0.0722
     35 H8          1.6323   -0.2653    1.3213 H         1 <0>         0.0750
     36 H9         -0.2862   -2.5784    0.7734 H         1 <0>         0.0670
     37 H10         1.3746   -2.4069    0.1549 H         1 <0>         0.0797
     38 H11         1.3304   -3.9210    2.1081 H         1 <0>         0.0678
     39 H12         2.2338   -2.4360    2.4903 H         1 <0>         0.0658
     40 H13        -0.6930   -2.9524    3.1876 H         1 <0>         0.0692
     41 H14         0.6717   -3.0532    4.3267 H         1 <0>         0.0753
     42 H15        -0.5370   -0.8437    4.4229 H         1 <0>         0.0754
     43 H16         1.1839   -0.6805    3.9881 H         1 <0>         0.0733
     44 H17        -2.0414   -0.0822    4.2553 H         1 <0>         0.1114
     45 H18        -0.0761    3.4358    3.3111 H         1 <0>         0.0969
     46 H19        -1.6364    3.0057    2.5551 H         1 <0>         0.0777
     47 H20        -2.8584    4.3657    4.0110 H         1 <0>         0.0737
     48 H21        -0.7207    4.0262    6.1860 H         1 <0>         0.0901
     49 H22        -2.4895    4.2521    6.3880 H         1 <0>         0.0764
     50 H23        -3.7347    2.2291    7.1684 H         1 <0>         0.4372
     51 H24        -3.8693    1.6070    8.7233 H         1 <0>         0.4351
     52 H25        -0.5457    0.4194    8.9146 H         1 <0>         0.4363
     53 H26        -1.9995    0.5460    9.7471 H         1 <0>         0.4359
     54 H27        -3.4366    2.2376    3.1251 H         1 <0>         0.4134
     55 H28        -5.5982    1.3333    1.7412 H         1 <0>         0.0962
     56 H29        -6.3833    0.0866    2.7400 H         1 <0>         0.0948
     57 H30        -6.0350    1.6903    3.4294 H         1 <0>         0.0906
     58 H31        -0.3939    1.2889    6.7694 H         1 <0>         0.4363
@<TRIPOS>BOND
     1    1    2 1
     2    1   30 1
     3    1   31 1
     4    1   32 1
     5    2    3 1
     6    2   33 1
     7    2   34 1
     8    3    8 1
     9    3    4 1
    10    3   35 1
    11    4    5 1
    12    4   36 1
    13    4   37 1
    14    5    6 1
    15    5   38 1
    16    5   39 1
    17    6    7 1
    18    6   40 1
    19    6   41 1
    20    7    8 1
    21    7   42 1
    22    7   43 1
    23    8    9 am
    24    9   10 2
    25    9   11 1
    26   11   12 1
    27   11   26 1
    28   11   44 1
    29   12   13 1
    30   12   17 1
    31   12   14 1
    32   14   15 1
    33   14   45 1
    34   14   46 1
    35   15   16 1
    36   15   23 1
    37   15   47 1
    38   16   17 1
    39   16   48 1
    40   16   49 1
    41   17   18 1
    42   17   19 1
    43   19   20 2
    44   19   58 1
    45   20   21 1
    46   20   22 1
    47   21   50 1
    48   21   51 1
    49   22   52 1
    50   22   53 1
    51   23   24 2
    52   23   25 1
    53   26   27 am
    54   26   54 1
    55   27   28 2
    56   27   29 1
    57   29   55 1
    58   29   56 1
    59   29   57 1
@<TRIPOS>MOLECULE
CHEMBL294169__4
   58    59     0     0     0
SMALL
USER_CHARGES

@<TRIPOS>ATOM
      1 C1         -1.4671   -0.4004   -0.1752 C.3       1 <0>        -0.1601
      2 C2         -0.0324    0.1292   -0.1319 C.3       1 <0>        -0.1122
      3 C3          0.6874   -0.4473    1.0890 C.3       1 <0>         0.1473
      4 C4          0.6990   -1.9768    1.0036 C.3       1 <0>        -0.1300
      5 C5          1.5385   -2.5415    2.1517 C.3       1 <0>        -0.1229
      6 C6          2.9791   -2.0399    2.0273 C.3       1 <0>        -0.1358
      7 C7          2.9934   -0.5111    2.1243 C.3       1 <0>         0.0948
      8 N1          2.0749    0.0353    1.1160 N.am      1 <0>        -0.6025
      9 C8          2.4971    0.9617    0.2328 C.2       1 <0>         0.5057
     10 O1          1.7080    1.4736   -0.5328 O.2       1 <0>        -0.4975
     11 C9          3.9497    1.3613    0.1966 C.3       1 <0>         0.1301
     12 C10         4.1641    2.5861    1.0881 C.3       1 <0>        -0.1061
     13 H1          3.4601    3.3758    0.8257 H         1 <0>         0.1136
     14 C11         4.0160    2.2022    2.5814 C.3       1 <0>        -0.0932
     15 C12         4.8266    3.3088    3.3008 C.3       1 <0>        -0.1563
     16 C13         6.0377    3.5519    2.3767 C.3       1 <0>        -0.1133
     17 C14         5.6155    3.0946    0.9672 C.3       1 <0>         0.1194
     18 H2          6.2660    2.2893    0.6259 H         1 <0>         0.1029
     19 N2          5.6765    4.2204    0.0317 N.pl3     1 <0>        -0.6373
     20 C15         6.7889    4.4900   -0.5919 C.cat     1 <0>         0.7321
     21 N3          7.9050    3.7180   -0.3716 N.pl3     1 <0>        -0.8144
     22 N4          6.8461    5.5465   -1.4698 N.pl3     1 <0>        -0.8218
     23 C16         5.2839    2.8316    4.6551 C.2       1 <0>         0.4967
     24 O2          6.3208    3.2586    5.1337 O.co2     1 <0>        -0.6936
     25 O3          4.6170    2.0186    5.2722 O.co2     1 <0>        -0.6834
     26 N5          4.3326    1.6861   -1.1797 N.am      1 <0>        -0.7292
     27 C17         3.7046    2.6812   -1.8369 C.2       1 <0>         0.5016
     28 O4          2.8225    3.3078   -1.2890 O.2       1 <0>        -0.4947
     29 C18         4.0985    3.0153   -3.2526 C.3       1 <0>        -0.1753
     30 H3         -1.9642   -0.1806    0.7696 H         1 <0>         0.0526
     31 H4         -2.0075    0.0805   -0.9906 H         1 <0>         0.0543
     32 H5         -1.4518   -1.4785   -0.3354 H         1 <0>         0.0510
     33 H6          0.4931   -0.1706   -1.0386 H         1 <0>         0.0622
     34 H7         -0.0485    1.2170   -0.0641 H         1 <0>         0.0941
     35 H8          0.1737   -0.1338    1.9978 H         1 <0>         0.0739
     36 H9         -0.3212   -2.3531    1.0795 H         1 <0>         0.0769
     37 H10         1.1309   -2.2847    0.0513 H         1 <0>         0.0633
     38 H11         1.1205   -2.2127    3.1032 H         1 <0>         0.0683
     39 H12         1.5282   -3.6305    2.1077 H         1 <0>         0.0663
     40 H13         3.5818   -2.4611    2.8319 H         1 <0>         0.0804
     41 H14         3.3895   -2.3473    1.0655 H         1 <0>         0.0628
     42 H15         2.6684   -0.2050    3.1187 H         1 <0>         0.0866
     43 H16         4.0020   -0.1426    1.9377 H         1 <0>         0.0875
     44 H17         4.5627    0.5362    0.5592 H         1 <0>         0.1124
     45 H18         2.9697    2.2302    2.8855 H         1 <0>         0.0796
     46 H19         4.4489    1.2202    2.7725 H         1 <0>         0.0838
     47 H20         4.2312    4.2168    3.3962 H         1 <0>         0.0742
     48 H21         6.2901    4.6122    2.3632 H         1 <0>         0.0714
     49 H22         6.8922    2.9686    2.7198 H         1 <0>         0.0931
     50 H23         7.8646    2.9727    0.2478 H         1 <0>         0.4376
     51 H24         8.7328    3.9187   -0.8356 H         1 <0>         0.4337
     52 H25         6.0587    6.0912   -1.6252 H         1 <0>         0.4358
     53 H26         7.6740    5.7472   -1.9338 H         1 <0>         0.4346
     54 H27         5.0381    1.1850   -1.6179 H         1 <0>         0.4019
     55 H28         3.9458    2.1428   -3.8878 H         1 <0>         0.0896
     56 H29         3.4855    3.8404   -3.6152 H         1 <0>         0.0942
     57 H30         5.1492    3.3044   -3.2789 H         1 <0>         0.0754
     58 H31         4.8890    4.7650   -0.1237 H         1 <0>         0.4375
@<TRIPOS>BOND
     1    1    2 1
     2    1   30 1
     3    1   31 1
     4    1   32 1
     5    2    3 1
     6    2   33 1
     7    2   34 1
     8    3    8 1
     9    3    4 1
    10    3   35 1
    11    4    5 1
    12    4   36 1
    13    4   37 1
    14    5    6 1
    15    5   38 1
    16    5   39 1
    17    6    7 1
    18    6   40 1
    19    6   41 1
    20    7    8 1
    21    7   42 1
    22    7   43 1
    23    8    9 am
    24    9   10 2
    25    9   11 1
    26   11   12 1
    27   11   26 1
    28   11   44 1
    29   12   13 1
    30   12   17 1
    31   12   14 1
    32   14   15 1
    33   14   45 1
    34   14   46 1
    35   15   16 1
    36   15   23 1
    37   15   47 1
    38   16   17 1
    39   16   48 1
    40   16   49 1
    41   17   18 1
    42   17   19 1
    43   19   20 2
    44   19   58 1
    45   20   21 1
    46   20   22 1
    47   21   50 1
    48   21   51 1
    49   22   52 1
    50   22   53 1
    51   23   24 2
    52   23   25 1
    53   26   27 am
    54   26   54 1
    55   27   28 2
    56   27   29 1
    57   29   55 1
    58   29   56 1
    59   29   57 1
@<TRIPOS>MOLECULE
CHEMBL294169__5
   58    59     0     0     0
SMALL
USER_CHARGES

@<TRIPOS>ATOM
      1 C1         -1.4564   -0.4400   -0.1269 C.3       1 <0>        -0.1600
      2 C2         -0.0328    0.1185   -0.0770 C.3       1 <0>        -0.1116
      3 C3          0.7515   -0.5828    1.0338 C.3       1 <0>         0.1473
      4 C4          0.7729   -2.0922    0.7732 C.3       1 <0>        -0.1303
      5 C5          1.6732   -2.7717    1.8075 C.3       1 <0>        -0.1231
      6 C6          3.1012   -2.2380    1.6726 C.3       1 <0>        -0.1348
      7 C7          3.1061   -0.7302    1.9434 C.3       1 <0>         0.0953
      8 N1          2.1341   -0.0859    1.0496 N.am      1 <0>        -0.6053
      9 C8          2.5038    0.9412    0.2593 C.2       1 <0>         0.5046
     10 O1          1.6728    1.5275   -0.4015 O.2       1 <0>        -0.4907
     11 C9          3.9497    1.3613    0.1966 C.3       1 <0>         0.1288
     12 C10         4.1641    2.5861    1.0881 C.3       1 <0>        -0.0980
     13 H1          3.4570    3.3711    0.8200 H         1 <0>         0.1132
     14 C11         3.9864    2.1992    2.5668 C.3       1 <0>        -0.1155
     15 C12         5.3307    2.4938    3.2640 C.3       1 <0>        -0.1532
     16 C13         5.9984    3.5638    2.3649 C.3       1 <0>        -0.1132
     17 C14         5.6097    3.1030    0.9373 C.3       1 <0>         0.1186
     18 H2          6.2684    2.3016    0.6028 H         1 <0>         0.1065
     19 N2          5.6563    4.2304    0.0030 N.pl3     1 <0>        -0.6355
     20 C15         6.7588    4.5010   -0.6375 C.cat     1 <0>         0.7325
     21 N3          7.8780    3.7283   -0.4362 N.pl3     1 <0>        -0.8162
     22 N4          6.8025    5.5590   -1.5143 N.pl3     1 <0>        -0.8211
     23 C16         5.0980    3.0395    4.6493 C.2       1 <0>         0.4959
     24 O2          5.8115    2.6847    5.5720 O.co2     1 <0>        -0.6891
     25 O3          4.1962    3.8357    4.8473 O.co2     1 <0>        -0.6855
     26 N5          4.3015    1.6959   -1.1856 N.am      1 <0>        -0.7305
     27 C17         3.6472    2.6842   -1.8272 C.2       1 <0>         0.4968
     28 O4          2.7672    3.2966   -1.2603 O.2       1 <0>        -0.4874
     29 C18         4.0092    3.0283   -3.2491 C.3       1 <0>        -0.1751
     30 H3         -1.9129   -0.3598    0.8596 H         1 <0>         0.0530
     31 H4         -2.0448    0.1287   -0.8469 H         1 <0>         0.0550
     32 H5         -1.4255   -1.4869   -0.4289 H         1 <0>         0.0507
     33 H6          0.4592   -0.0546   -1.0341 H         1 <0>         0.0629
     34 H7         -0.0694    1.1891    0.1243 H         1 <0>         0.0935
     35 H8          0.2803   -0.3826    1.9961 H         1 <0>         0.0742
     36 H9         -0.2387   -2.4898    0.8542 H         1 <0>         0.0778
     37 H10         1.1602   -2.2831   -0.2277 H         1 <0>         0.0637
     38 H11         1.2995   -2.5599    2.8093 H         1 <0>         0.0679
     39 H12         1.6707   -3.8487    1.6394 H         1 <0>         0.0671
     40 H13         3.7466   -2.7393    2.3938 H         1 <0>         0.0795
     41 H14         3.4665   -2.4275    0.6633 H         1 <0>         0.0646
     42 H15         2.8278   -0.5444    2.9808 H         1 <0>         0.0822
     43 H16         4.1010   -0.3279    1.7522 H         1 <0>         0.0872
     44 H17         4.5810    0.5437    0.5445 H         1 <0>         0.1114
     45 H18         3.1937    2.7971    3.0166 H         1 <0>         0.0945
     46 H19         3.7475    1.1390    2.6493 H         1 <0>         0.0738
     47 H20         5.9441    1.5937    3.3055 H         1 <0>         0.0741
     48 H21         5.5918    4.5531    2.5749 H         1 <0>         0.0878
     49 H22         7.0809    3.5548    2.4926 H         1 <0>         0.0747
     50 H23         7.8472    2.9818    0.1824 H         1 <0>         0.4367
     51 H24         8.6985    3.9296   -0.9128 H         1 <0>         0.4336
     52 H25         6.0128    6.1041   -1.6563 H         1 <0>         0.4364
     53 H26         7.6230    5.7603   -1.9909 H         1 <0>         0.4346
     54 H27         5.0054    1.2061   -1.6391 H         1 <0>         0.4015
     55 H28         3.8564    2.1558   -3.8842 H         1 <0>         0.0892
     56 H29         3.3778    3.8460   -3.5969 H         1 <0>         0.0947
     57 H30         5.0550    3.3322   -3.2944 H         1 <0>         0.0755
     58 H31         4.8666    4.7756   -0.1390 H         1 <0>         0.4389
@<TRIPOS>BOND
     1    1    2 1
     2    1   30 1
     3    1   31 1
     4    1   32 1
     5    2    3 1
     6    2   33 1
     7    2   34 1
     8    3    8 1
     9    3    4 1
    10    3   35 1
    11    4    5 1
    12    4   36 1
    13    4   37 1
    14    5    6 1
    15    5   38 1
    16    5   39 1
    17    6    7 1
    18    6   40 1
    19    6   41 1
    20    7    8 1
    21    7   42 1
    22    7   43 1
    23    8    9 am
    24    9   10 2
    25    9   11 1
    26   11   12 1
    27   11   26 1
    28   11   44 1
    29   12   13 1
    30   12   17 1
    31   12   14 1
    32   14   15 1
    33   14   45 1
    34   14   46 1
    35   15   16 1
    36   15   23 1
    37   15   47 1
    38   16   17 1
    39   16   48 1
    40   16   49 1
    41   17   18 1
    42   17   19 1
    43   19   20 2
    44   19   58 1
    45   20   21 1
    46   20   22 1
    47   21   50 1
    48   21   51 1
    49   22   52 1
    50   22   53 1
    51   23   24 2
    52   23   25 1
    53   26   27 am
    54   26   54 1
    55   27   28 2
    56   27   29 1
    57   29   55 1
    58   29   56 1
    59   29   57 1
@<TRIPOS>MOLECULE
CHEMBL294169__6
   58    59     0     0     0
SMALL
USER_CHARGES

@<TRIPOS>ATOM
      1 C1         -1.4203   -0.5635   -0.0009 C.3       1 <0>        -0.1593
      2 C2         -0.0016    0.0094   -0.0071 C.3       1 <0>        -0.1179
      3 C3          0.7167   -0.3936    1.2823 C.3       1 <0>         0.1489
      4 C4          0.7627   -1.9212    1.3886 C.3       1 <0>        -0.1343
      5 C5          1.6013   -2.3188    2.6054 C.3       1 <0>        -0.1211
      6 C6          3.0319   -1.8035    2.4316 C.3       1 <0>        -0.1376
      7 C7          3.0116   -0.2746    2.3371 C.3       1 <0>         0.1056
      8 N1          2.0929    0.1205    1.2607 N.am      1 <0>        -0.6073
      9 C8          2.5048    0.9391    0.2724 C.2       1 <0>         0.5079
     10 O1          1.7127    1.3358   -0.5560 O.2       1 <0>        -0.5030
     11 C9          3.9494    1.3613    0.1965 C.3       1 <0>         0.1287
     12 C10         4.7755    0.2412   -0.4389 C.3       1 <0>        -0.1044
     13 H1          4.6734   -0.6797    0.1354 H         1 <0>         0.1044
     14 C11         4.3417    0.0145   -1.9084 C.3       1 <0>        -0.0840
     15 C12         5.5959   -0.6413   -2.5377 C.3       1 <0>        -0.1573
     16 C13         6.7796    0.0942   -1.8760 C.3       1 <0>        -0.1133
     17 C14         6.2586    0.6539   -0.5383 C.3       1 <0>         0.1115
     18 H2          6.3452    1.7404   -0.5296 H         1 <0>         0.1086
     19 N2          7.0149    0.0806    0.5777 N.pl3     1 <0>        -0.6451
     20 C15         8.1150    0.6516    0.9810 C.cat     1 <0>         0.7377
     21 N3          8.5656    1.7919    0.3590 N.pl3     1 <0>        -0.8113
     22 N4          8.8248    0.1136    2.0283 N.pl3     1 <0>        -0.8193
     23 C16         5.6101   -0.4283   -4.0295 C.2       1 <0>         0.4950
     24 O2          6.6716   -0.3541   -4.6246 O.co2     1 <0>        -0.6932
     25 O3          4.5601   -0.3302   -4.6413 O.co2     1 <0>        -0.6807
     26 N5          4.0617    2.5735   -0.6185 N.am      1 <0>        -0.7144
     27 C17         3.9619    3.7865   -0.0395 C.2       1 <0>         0.5180
     28 O4          3.8703    3.8771    1.1664 O.2       1 <0>        -0.5480
     29 C18         3.9640    5.0301   -0.8906 C.3       1 <0>        -0.1775
     30 H3         -1.9372   -0.2441    0.9040 H         1 <0>         0.0501
     31 H4         -1.9618   -0.2024   -0.8753 H         1 <0>         0.0581
     32 H5         -1.3726   -1.6522   -0.0270 H         1 <0>         0.0524
     33 H6          0.5447   -0.3824   -0.8650 H         1 <0>         0.0716
     34 H7         -0.0490    1.0964   -0.0720 H         1 <0>         0.0920
     35 H8          0.1860    0.0187    2.1405 H         1 <0>         0.0712
     36 H9         -0.2498   -2.3086    1.5023 H         1 <0>         0.0799
     37 H10         1.2120   -2.3353    0.4860 H         1 <0>         0.0698
     38 H11         1.1654   -1.8838    3.5048 H         1 <0>         0.0651
     39 H12         1.6153   -3.4048    2.6976 H         1 <0>         0.0687
     40 H13         3.6345   -2.1072    3.2876 H         1 <0>         0.0755
     41 H14         3.4598   -2.2188    1.5192 H         1 <0>         0.0684
     42 H15         2.6688    0.1454    3.2827 H         1 <0>         0.0732
     43 H16         4.0141    0.0910    2.1145 H         1 <0>         0.0741
     44 H17         4.3222    1.5629    1.2008 H         1 <0>         0.1105
     45 H18         3.4867   -0.6597   -1.9592 H         1 <0>         0.0816
     46 H19         4.1164    0.9632   -2.3954 H         1 <0>         0.0808
     47 H20         5.6286   -1.7052   -2.3030 H         1 <0>         0.0755
     48 H21         7.5975   -0.6029   -1.6938 H         1 <0>         0.0741
     49 H22         7.1183    0.9085   -2.5166 H         1 <0>         0.0942
     50 H23         8.0648    2.1715   -0.3799 H         1 <0>         0.4381
     51 H24         9.3843    2.2169    0.6591 H         1 <0>         0.4351
     52 H25         8.5069   -0.6909    2.4671 H         1 <0>         0.4356
     53 H26         9.6435    0.5386    2.3284 H         1 <0>         0.4359
     54 H27         4.2079    2.5031   -1.5748 H         1 <0>         0.4143
     55 H28         3.1222    4.9984   -1.5824 H         1 <0>         0.0968
     56 H29         3.8758    5.9083   -0.2510 H         1 <0>         0.0947
     57 H30         4.8955    5.0831   -1.4541 H         1 <0>         0.0908
     58 H31         6.6970   -0.7239    1.0165 H         1 <0>         0.4345
@<TRIPOS>BOND
     1    1    2 1
     2    1   30 1
     3    1   31 1
     4    1   32 1
     5    2    3 1
     6    2   33 1
     7    2   34 1
     8    3    8 1
     9    3    4 1
    10    3   35 1
    11    4    5 1
    12    4   36 1
    13    4   37 1
    14    5    6 1
    15    5   38 1
    16    5   39 1
    17    6    7 1
    18    6   40 1
    19    6   41 1
    20    7    8 1
    21    7   42 1
    22    7   43 1
    23    8    9 am
    24    9   10 2
    25    9   11 1
    26   11   12 1
    27   11   26 1
    28   11   44 1
    29   12   13 1
    30   12   17 1
    31   12   14 1
    32   14   15 1
    33   14   45 1
    34   14   46 1
    35   15   16 1
    36   15   23 1
    37   15   47 1
    38   16   17 1
    39   16   48 1
    40   16   49 1
    41   17   18 1
    42   17   19 1
    43   19   20 2
    44   19   58 1
    45   20   21 1
    46   20   22 1
    47   21   50 1
    48   21   51 1
    49   22   52 1
    50   22   53 1
    51   23   24 2
    52   23   25 1
    53   26   27 am
    54   26   54 1
    55   27   28 2
    56   27   29 1
    57   29   55 1
    58   29   56 1
    59   29   57 1
@<TRIPOS>MOLECULE
CHEMBL294169__7
   58    59     0     0     0
SMALL
USER_CHARGES

@<TRIPOS>ATOM
      1 C1         -1.4171   -0.5781    0.0678 C.3       1 <0>        -0.1594
      2 C2          0.0001   -0.0022    0.0425 C.3       1 <0>        -0.1176
      3 C3          0.7295   -0.3857    1.3317 C.3       1 <0>         0.1489
      4 C4          0.7798   -1.9115    1.4589 C.3       1 <0>        -0.1351
      5 C5          1.6289   -2.2903    2.6745 C.3       1 <0>        -0.1207
      6 C6          3.0568   -1.7743    2.4823 C.3       1 <0>        -0.1386
      7 C7          3.0322   -0.2469    2.3668 C.3       1 <0>         0.1057
      8 N1          2.1042    0.1312    1.2922 N.am      1 <0>        -0.6057
      9 C8          2.5064    0.9368    0.2894 C.2       1 <0>         0.5091
     10 O1          1.7070    1.3202   -0.5382 O.2       1 <0>        -0.5075
     11 C9          3.9494    1.3613    0.1965 C.3       1 <0>         0.1266
     12 C10         4.7732    0.2344   -0.4297 C.3       1 <0>        -0.0952
     13 H1          4.6775   -0.6733    0.1663 H         1 <0>         0.1029
     14 C11         4.2986   -0.0281   -1.8697 C.3       1 <0>        -0.1105
     15 C12         5.5087    0.2396   -2.7882 C.3       1 <0>        -0.1540
     16 C13         6.7369    0.0456   -1.8647 C.3       1 <0>        -0.1123
     17 C14         6.2554    0.6519   -0.5223 C.3       1 <0>         0.1104
     18 H2          6.3454    1.7380   -0.5404 H         1 <0>         0.1123
     19 N2          7.0168    0.0917    0.5969 N.pl3     1 <0>        -0.6437
     20 C15         8.1126    0.6739    0.9960 C.cat     1 <0>         0.7382
     21 N3          8.5538    1.8138    0.3666 N.pl3     1 <0>        -0.8131
     22 N4          8.8271    0.1481    2.0463 N.pl3     1 <0>        -0.8185
     23 C16         5.5397   -0.7524   -3.9223 C.2       1 <0>         0.4970
     24 O2          5.8447   -0.3861   -5.0445 O.co2     1 <0>        -0.6866
     25 O3          5.2597   -1.9212   -3.7176 O.co2     1 <0>        -0.6865
     26 N5          4.0525    2.5623   -0.6361 N.am      1 <0>        -0.7136
     27 C17         3.9551    3.7830   -0.0732 C.2       1 <0>         0.5173
     28 O4          3.8735    3.8902    1.1321 O.2       1 <0>        -0.5470
     29 C18         3.9476    5.0147   -0.9414 C.3       1 <0>        -0.1772
     30 H3         -1.9277   -0.2472    0.9722 H         1 <0>         0.0502
     31 H4         -1.9662   -0.2304   -0.8073 H         1 <0>         0.0576
     32 H5         -1.3672   -1.6669    0.0564 H         1 <0>         0.0530
     33 H6          0.5406   -0.4047   -0.8142 H         1 <0>         0.0714
     34 H7         -0.0503    1.0837   -0.0372 H         1 <0>         0.0916
     35 H8          0.2045    0.0373    2.1882 H         1 <0>         0.0713
     36 H9         -0.2308   -2.2995    1.5858 H         1 <0>         0.0799
     37 H10         1.2230   -2.3372    0.5586 H         1 <0>         0.0712
     38 H11         1.1990   -1.8438    3.5711 H         1 <0>         0.0647
     39 H12         1.6461   -3.3749    2.7816 H         1 <0>         0.0693
     40 H13         3.6668   -2.0646    3.3377 H         1 <0>         0.0758
     41 H14         3.4786   -2.2012    1.5724 H         1 <0>         0.0703
     42 H15         2.6958    0.1855    3.3091 H         1 <0>         0.0734
     43 H16         4.0320    0.1178    2.1313 H         1 <0>         0.0738
     44 H17         4.3295    1.5777    1.1949 H         1 <0>         0.1106
     45 H18         3.9734   -1.0633   -1.9728 H         1 <0>         0.0965
     46 H19         3.4813    0.6474   -2.1224 H         1 <0>         0.0776
     47 H20         5.4777    1.2591   -3.1727 H         1 <0>         0.0737
     48 H21         6.9694   -1.0129   -1.7484 H         1 <0>         0.0900
     49 H22         7.5988    0.5917   -2.2483 H         1 <0>         0.0765
     50 H23         8.0497    2.1847   -0.3744 H         1 <0>         0.4372
     51 H24         9.3693    2.2470    0.6636 H         1 <0>         0.4351
     52 H25         8.5158   -0.6561    2.4904 H         1 <0>         0.4363
     53 H26         9.6425    0.5814    2.3433 H         1 <0>         0.4359
     54 H27         4.1908    2.4789   -1.5926 H         1 <0>         0.4134
     55 H28         3.1002    4.9719   -1.6256 H         1 <0>         0.0963
     56 H29         3.8631    5.9015   -0.3133 H         1 <0>         0.0949
     57 H30         4.8743    5.0617   -1.5135 H         1 <0>         0.0906
     58 H31         6.7055   -0.7126    1.0410 H         1 <0>         0.4361
@<TRIPOS>BOND
     1    1    2 1
     2    1   30 1
     3    1   31 1
     4    1   32 1
     5    2    3 1
     6    2   33 1
     7    2   34 1
     8    3    8 1
     9    3    4 1
    10    3   35 1
    11    4    5 1
    12    4   36 1
    13    4   37 1
    14    5    6 1
    15    5   38 1
    16    5   39 1
    17    6    7 1
    18    6   40 1
    19    6   41 1
    20    7    8 1
    21    7   42 1
    22    7   43 1
    23    8    9 am
    24    9   10 2
    25    9   11 1
    26   11   12 1
    27   11   26 1
    28   11   44 1
    29   12   13 1
    30   12   17 1
    31   12   14 1
    32   14   15 1
    33   14   45 1
    34   14   46 1
    35   15   16 1
    36   15   23 1
    37   15   47 1
    38   16   17 1
    39   16   48 1
    40   16   49 1
    41   17   18 1
    42   17   19 1
    43   19   20 2
    44   19   58 1
    45   20   21 1
    46   20   22 1
    47   21   50 1
    48   21   51 1
    49   22   52 1
    50   22   53 1
    51   23   24 2
    52   23   25 1
    53   26   27 am
    54   26   54 1
    55   27   28 2
    56   27   29 1
    57   29   55 1
    58   29   56 1
    59   29   57 1
@<TRIPOS>MOLECULE
CHEMBL1161504
   45    46     0     0     0
SMALL
USER_CHARGES

@<TRIPOS>ATOM
      1 C1          0.0300   -0.5701    4.0487 C.3       1 <0>        -0.1720
      2 C2         -0.0382    0.8211    3.4155 C.3       1 <0>         0.1172
      3 C3         -1.5053    1.1889    3.0872 C.3       1 <0>        -0.1226
      4 C4         -1.3421    1.8629    1.6977 C.3       1 <0>         0.0064
      5 N1         -0.2235    1.0814    1.1106 N.3       1 <0>        -0.2768
      6 N2          0.6656    0.8277    2.1231 N.am      1 <0>        -0.4678
      7 C5          1.9866    0.6165    1.9593 C.2       1 <0>         0.5385
      8 O1          2.4900    0.7451    0.8634 O.2       1 <0>        -0.4813
      9 C6          2.8383    0.2206    3.1378 C.3       1 <0>         0.0641
     10 H1          2.2656    0.3318    4.0586 H         1 <0>         0.1022
     11 C7          3.2900   -1.2379    2.9827 C.3       1 <0>         0.0975
     12 H2          3.9159   -1.3364    2.0957 H         1 <0>         0.1356
     13 C8          4.0938   -1.6264    4.2280 C.3       1 <0>         0.0885
     14 H3          3.4180   -1.7419    5.0754 H         1 <0>         0.1445
     15 C9          5.0994   -0.5491    4.5316 C.2       1 <0>        -0.3728
     16 C10         5.0028    0.6726    4.0249 C.2       1 <0>         0.1418
     17 O2          4.0026    1.0496    3.1913 O.3       1 <0>        -0.2595
     18 C11         6.0281    1.6648    4.3843 C.2       1 <0>         0.5228
     19 O3          6.9432    1.3544    5.1349 O.co2     1 <0>        -0.6478
     20 O4          5.9657    2.8001    3.9325 O.co2     1 <0>        -0.6340
     21 N3          4.7935   -2.8947    3.9833 N.4       1 <0>        -0.6261
     22 N4          2.1177   -2.1077    2.8591 N.am      1 <0>        -0.7480
     23 C12         1.6204   -2.3994    1.6409 C.2       1 <0>         0.5090
     24 O5          2.1856   -2.0019    0.6441 O.2       1 <0>        -0.4958
     25 C13         0.3620   -3.2193    1.5173 C.3       1 <0>        -0.1692
     26 C14         0.4204    1.8230    0.0181 C.3       1 <0>        -0.0136
     27 H4          1.0724   -0.8454    4.2093 H         1 <0>         0.0571
     28 H5         -0.4946   -0.5606    5.0041 H         1 <0>         0.0792
     29 H6         -0.4391   -1.2953    3.3838 H         1 <0>         0.0717
     30 H7          0.3970    1.5621    4.0861 H         1 <0>         0.0851
     31 H8         -2.1276    0.2966    3.0195 H         1 <0>         0.0910
     32 H9         -1.9068    1.8903    3.8185 H         1 <0>         0.0921
     33 H10        -2.2487    1.7537    1.1024 H         1 <0>         0.1085
     34 H11        -1.0708    2.9133    1.8032 H         1 <0>         0.0596
     35 H12         5.9282   -0.7786    5.1850 H         1 <0>         0.1667
     36 H13         5.4193   -2.7877    3.1990 H         1 <0>         0.4376
     37 H14         5.3228   -3.1505    4.8033 H         1 <0>         0.4403
     38 H15         1.6994   -2.4737    3.6541 H         1 <0>         0.4057
     39 H16        -0.0464   -3.4099    2.5097 H         1 <0>         0.0766
     40 H17        -0.3700   -2.6739    0.9216 H         1 <0>         0.1049
     41 H18         0.5924   -4.1673    1.0311 H         1 <0>         0.0981
     42 H19         0.9561    2.6798    0.4268 H         1 <0>         0.0396
     43 H20         1.1219    1.1695   -0.5006 H         1 <0>         0.1041
     44 H21        -0.3391    2.1698   -0.6826 H         1 <0>         0.0742
     45 H22         4.1191   -3.6170    3.7794 H         1 <0>         0.4268
@<TRIPOS>BOND
     1    1    2 1
     2    1   27 1
     3    1   28 1
     4    1   29 1
     5    2    6 1
     6    2    3 1
     7    2   30 1
     8    3    4 1
     9    3   31 1
    10    3   32 1
    11    4    5 1
    12    4   33 1
    13    4   34 1
    14    5    6 1
    15    5   26 1
    16    6    7 am
    17    7    8 2
    18    7    9 1
    19    9   10 1
    20    9   17 1
    21    9   11 1
    22   11   12 1
    23   11   13 1
    24   11   22 1
    25   13   14 1
    26   13   15 1
    27   13   21 1
    28   15   16 2
    29   15   35 1
    30   16   17 1
    31   16   18 1
    32   18   19 2
    33   18   20 1
    34   21   36 1
    35   21   37 1
    36   21   45 1
    37   22   23 am
    38   22   38 1
    39   23   24 2
    40   23   25 1
    41   25   39 1
    42   25   40 1
    43   25   41 1
    44   26   42 1
    45   26   43 1
    46   26   44 1
@<TRIPOS>MOLECULE
CHEMBL1161504__1
   44    45     0     0     0
SMALL
USER_CHARGES

@<TRIPOS>ATOM
      1 C1          1.5749    1.4535   -0.8402 C.3       1 <0>        -0.1590
      2 C2          1.1335    2.0824    0.4829 C.3       1 <0>         0.1151
      3 C3          1.7304    3.4951    0.6463 C.3       1 <0>        -0.1333
      4 C4          1.5702    3.6080    2.1726 C.3       1 <0>         0.0278
      5 N1          2.0109    2.2731    2.6022 N.3       1 <0>        -0.2755
      6 N2          1.7200    1.3649    1.6264 N.am      1 <0>        -0.4521
      7 C5          1.9339    0.0362    1.6974 C.2       1 <0>         0.5556
      8 O1          1.6581   -0.6737    0.7535 O.2       1 <0>        -0.5260
      9 C6          2.5157   -0.5676    2.9496 C.3       1 <0>         0.0567
     10 H1          1.7125   -0.8307    3.6379 H         1 <0>         0.0900
     11 C7          3.3224   -1.8231    2.5919 C.3       1 <0>         0.1362
     12 H2          4.1635   -1.5504    1.9546 H         1 <0>         0.1128
     13 C8          3.8402   -2.4475    3.8919 C.3       1 <0>         0.1318
     14 H3          3.0130   -2.9169    4.4243 H         1 <0>         0.0335
     15 C9          4.4484   -1.3756    4.7550 C.2       1 <0>        -0.2584
     16 C10         4.2031   -0.0867    4.5615 C.2       1 <0>         0.0371
     17 O2          3.3964    0.3713    3.5731 O.3       1 <0>        -0.2526
     18 C11         4.8353    0.8910    5.4609 C.2       1 <0>         0.5371
     19 O3          5.5683    0.5081    6.3627 O.co2     1 <0>        -0.6723
     20 O4          4.6279    2.0870    5.3073 O.co2     1 <0>        -0.6594
     21 N3          4.8577   -3.4595    3.5778 N.3       1 <0>        -0.8262
     22 N4          2.4621   -2.7801    1.8917 N.am      1 <0>        -0.7073
     23 C12         2.9861   -3.6012    0.9601 C.2       1 <0>         0.5117
     24 O5          4.1832   -3.6118    0.7654 O.2       1 <0>        -0.5343
     25 C13         2.0846   -4.5061    0.1604 C.3       1 <0>        -0.1660
     26 C14         1.3837    1.8963    3.8760 C.3       1 <0>        -0.0043
     27 H4          1.2497    0.4137   -0.8746 H         1 <0>         0.0875
     28 H5          1.1283    2.0015   -1.6699 H         1 <0>         0.0601
     29 H6          2.6612    1.4972   -0.9187 H         1 <0>         0.0598
     30 H7          0.0462    2.1073    0.5559 H         1 <0>         0.0748
     31 H8          2.7780    3.5278    0.3469 H         1 <0>         0.0928
     32 H9          1.1396    4.2461    0.1218 H         1 <0>         0.0883
     33 H10         2.2186    4.3845    2.5786 H         1 <0>         0.1082
     34 H11         0.5297    3.7841    2.4457 H         1 <0>         0.0523
     35 H12         5.1072   -1.6658    5.5602 H         1 <0>         0.1349
     36 H13         5.2151   -3.8862    4.4193 H         1 <0>         0.3391
     37 H14         4.4918   -4.1562    2.9463 H         1 <0>         0.3393
     38 H15         1.5154   -2.8229    2.0985 H         1 <0>         0.3964
     39 H16         1.0446   -4.2949    0.4091 H         1 <0>         0.0721
     40 H17         2.2464   -4.3321   -0.9034 H         1 <0>         0.0917
     41 H18         2.3109   -5.5458    0.3971 H         1 <0>         0.0881
     42 H19         0.3027    2.0110    3.7967 H         1 <0>         0.0152
     43 H20         1.6230    0.8579    4.1056 H         1 <0>         0.0838
     44 H21         1.7601    2.5402    4.6708 H         1 <0>         0.0969
@<TRIPOS>BOND
     1    1    2 1
     2    1   27 1
     3    1   28 1
     4    1   29 1
     5    2    6 1
     6    2    3 1
     7    2   30 1
     8    3    4 1
     9    3   31 1
    10    3   32 1
    11    4    5 1
    12    4   33 1
    13    4   34 1
    14    5    6 1
    15    5   26 1
    16    6    7 am
    17    7    8 2
    18    7    9 1
    19    9   10 1
    20    9   17 1
    21    9   11 1
    22   11   12 1
    23   11   13 1
    24   11   22 1
    25   13   14 1
    26   13   15 1
    27   13   21 1
    28   15   16 2
    29   15   35 1
    30   16   17 1
    31   16   18 1
    32   18   19 2
    33   18   20 1
    34   21   36 1
    35   21   37 1
    36   22   23 am
    37   22   38 1
    38   23   24 2
    39   23   25 1
    40   25   39 1
    41   25   40 1
    42   25   41 1
    43   26   42 1
    44   26   43 1
    45   26   44 1
@<TRIPOS>MOLECULE
CHEMBL1161504__2
   45    46     0     0     0
SMALL
USER_CHARGES

@<TRIPOS>ATOM
      1 C1         -0.5357   -3.4739    2.6834 C.3       1 <0>        -0.1830
      2 C2          0.2022   -2.6711    1.6101 C.3       1 <0>         0.1236
      3 C3         -0.1532   -3.2061    0.2020 C.3       1 <0>        -0.1238
      4 C4         -1.2321   -2.1823   -0.2448 C.3       1 <0>         0.0070
      5 N1         -0.7440   -0.9307    0.3892 N.3       1 <0>        -0.2765
      6 N2         -0.2485   -1.2701    1.6218 N.am      1 <0>        -0.4683
      7 C5         -0.1842   -0.4445    2.6851 C.2       1 <0>         0.5400
      8 O1         -0.6950    0.6542    2.6315 O.2       1 <0>        -0.4841
      9 C6          0.5224   -0.8865    3.9406 C.3       1 <0>         0.0565
     10 H1          0.6445   -1.9696    3.9314 H         1 <0>         0.1091
     11 C7          1.8982   -0.2117    4.0246 C.3       1 <0>         0.0955
     12 H2          1.7738    0.8687    4.0980 H         1 <0>         0.1351
     13 C8          2.6142   -0.7354    5.2741 C.3       1 <0>         0.0892
     14 H3          2.9338   -1.7637    5.1055 H         1 <0>         0.1448
     15 C9          1.6735   -0.6883    6.4474 C.2       1 <0>        -0.3733
     16 C10         0.3601   -0.5808    6.2979 C.2       1 <0>         0.1412
     17 O2         -0.2410   -0.4972    5.0858 O.3       1 <0>        -0.2570
     18 C11        -0.4835   -0.5514    7.5030 C.2       1 <0>         0.5228
     19 O3          0.0299   -0.6253    8.6111 O.co2     1 <0>        -0.6479
     20 O4         -1.6985   -0.4529    7.3970 O.co2     1 <0>        -0.6336
     21 N3          3.7879    0.1028    5.5534 N.4       1 <0>        -0.6261
     22 N4          2.6825   -0.5387    2.8313 N.am      1 <0>        -0.7470
     23 C12         2.6840    0.2990    1.7754 C.2       1 <0>         0.5120
     24 O5          2.1025    1.3611    1.8432 O.2       1 <0>        -0.5020
     25 C13         3.4081   -0.0842    0.5106 C.3       1 <0>        -0.1680
     26 C14        -1.8265    0.0549    0.5102 C.3       1 <0>        -0.0092
     27 H4         -1.6112   -3.3627    2.5451 H         1 <0>         0.0689
     28 H5         -0.2655   -4.5265    2.5998 H         1 <0>         0.0826
     29 H6         -0.2561   -3.1042    3.6700 H         1 <0>         0.0664
     30 H7          1.2785   -2.7227    1.7743 H         1 <0>         0.0839
     31 H8          0.7131   -3.1764   -0.4589 H         1 <0>         0.0899
     32 H9         -0.5672   -4.2128    0.2579 H         1 <0>         0.0934
     33 H10        -1.2533   -2.0869   -1.3304 H         1 <0>         0.1084
     34 H11        -2.2139   -2.4574    0.1403 H         1 <0>         0.0592
     35 H12         2.0818   -0.7444    7.4457 H         1 <0>         0.1665
     36 H13         3.4919    1.0547    5.7095 H         1 <0>         0.4373
     37 H14         4.2593   -0.2421    6.3761 H         1 <0>         0.4400
     38 H15         3.2008   -1.3581    2.8010 H         1 <0>         0.4055
     39 H16         3.7908   -1.1005    0.6046 H         1 <0>         0.0768
     40 H17         2.7193   -0.0320   -0.3325 H         1 <0>         0.1056
     41 H18         4.2381    0.6026    0.3448 H         1 <0>         0.0978
     42 H19        -2.5114   -0.2528    1.3003 H         1 <0>         0.0418
     43 H20        -1.4046    1.0299    0.7544 H         1 <0>         0.0993
     44 H21        -2.3667    0.1191   -0.4343 H         1 <0>         0.0730
     45 H22         4.4185    0.0714    4.7664 H         1 <0>         0.4268
@<TRIPOS>BOND
     1    1    2 1
     2    1   27 1
     3    1   28 1
     4    1   29 1
     5    2    6 1
     6    2    3 1
     7    2   30 1
     8    3    4 1
     9    3   31 1
    10    3   32 1
    11    4    5 1
    12    4   33 1
    13    4   34 1
    14    5    6 1
    15    5   26 1
    16    6    7 am
    17    7    8 2
    18    7    9 1
    19    9   10 1
    20    9   17 1
    21    9   11 1
    22   11   12 1
    23   11   13 1
    24   11   22 1
    25   13   14 1
    26   13   15 1
    27   13   21 1
    28   15   16 2
    29   15   35 1
    30   16   17 1
    31   16   18 1
    32   18   19 2
    33   18   20 1
    34   21   36 1
    35   21   37 1
    36   21   45 1
    37   22   23 am
    38   22   38 1
    39   23   24 2
    40   23   25 1
    41   25   39 1
    42   25   40 1
    43   25   41 1
    44   26   42 1
    45   26   43 1
    46   26   44 1
@<TRIPOS>MOLECULE
CHEMBL1161504__3
   44    45     0     0     0
SMALL
USER_CHARGES

@<TRIPOS>ATOM
      1 C1         -0.2783   -0.1780    0.2867 C.3       1 <0>        -0.1784
      2 C2          1.1425    0.3773    0.1686 C.3       1 <0>         0.1152
      3 C3          1.4235    0.8252   -1.2859 C.3       1 <0>        -0.1242
      4 C4          1.1894    2.3567   -1.1792 C.3       1 <0>         0.0083
      5 N1          1.6736    2.6427    0.1958 N.3       1 <0>        -0.2774
      6 N2          1.2842    1.5925    0.9866 N.am      1 <0>        -0.4705
      7 C5          1.0637    1.6626    2.3144 C.2       1 <0>         0.5454
      8 O1          1.1097    2.7340    2.8810 O.2       1 <0>        -0.4965
      9 C6          0.7602    0.4098    3.0950 C.3       1 <0>         0.0623
     10 H1          0.1423   -0.2570    2.4936 H         1 <0>         0.0898
     11 C7          2.0703   -0.2964    3.4695 C.3       1 <0>         0.1219
     12 H2          2.6602    0.3459    4.1233 H         1 <0>         0.1255
     13 C8          1.7223   -1.5975    4.2002 C.3       1 <0>         0.1396
     14 H3          1.3311   -2.3220    3.4859 H         1 <0>         0.0393
     15 C9          0.6833   -1.3189    5.2522 C.2       1 <0>        -0.2667
     16 C10        -0.0537   -0.2164    5.2449 C.2       1 <0>         0.0522
     17 O2          0.0704    0.7488    4.3013 O.3       1 <0>        -0.2676
     18 C11        -1.0523   -0.0325    6.3096 C.2       1 <0>         0.5356
     19 O3         -1.1880   -0.8865    7.1753 O.co2     1 <0>        -0.6672
     20 O4         -1.7472    0.9744    6.3294 O.co2     1 <0>        -0.6625
     21 N3          2.9302   -2.1401    4.8363 N.3       1 <0>        -0.8312
     22 N4          2.8327   -0.5992    2.2557 N.am      1 <0>        -0.7291
     23 C12         3.9133    0.1403    1.9366 C.2       1 <0>         0.5138
     24 O5          4.2545    1.0565    2.6542 O.2       1 <0>        -0.5215
     25 C13         4.6975   -0.1711    0.6880 C.3       1 <0>        -0.1678
     26 C14         1.1230    3.9099    0.6948 C.3       1 <0>        -0.0088
     27 H4         -0.9227    0.5684    0.7510 H         1 <0>         0.0665
     28 H5         -0.6580   -0.4188   -0.7062 H         1 <0>         0.0748
     29 H6         -0.2663   -1.0794    0.8995 H         1 <0>         0.0680
     30 H7          1.8679   -0.3742    0.4803 H         1 <0>         0.0915
     31 H8          2.4518    0.6047   -1.5724 H         1 <0>         0.0866
     32 H9          0.7183    0.3681   -1.9801 H         1 <0>         0.0895
     33 H10         1.7806    2.8942   -1.9205 H         1 <0>         0.1025
     34 H11         0.1308    2.5972   -1.2778 H         1 <0>         0.0545
     35 H12         0.5323   -2.0419    6.0403 H         1 <0>         0.1399
     36 H13         2.7268   -2.9990    5.3251 H         1 <0>         0.3472
     37 H14         3.6660   -2.2750    4.1591 H         1 <0>         0.3351
     38 H15         2.5597   -1.3319    1.6817 H         1 <0>         0.3955
     39 H16         4.2439   -1.0200    0.1763 H         1 <0>         0.0711
     40 H17         4.6904    0.6967    0.0285 H         1 <0>         0.0972
     41 H18         5.7254   -0.4154    0.9560 H         1 <0>         0.0930
     42 H19         0.0579    3.7903    0.8930 H         1 <0>         0.0372
     43 H20         1.6346    4.1908    1.6154 H         1 <0>         0.1020
     44 H21         1.2681    4.6889   -0.0537 H         1 <0>         0.0684
@<TRIPOS>BOND
     1    1    2 1
     2    1   27 1
     3    1   28 1
     4    1   29 1
     5    2    6 1
     6    2    3 1
     7    2   30 1
     8    3    4 1
     9    3   31 1
    10    3   32 1
    11    4    5 1
    12    4   33 1
    13    4   34 1
    14    5    6 1
    15    5   26 1
    16    6    7 am
    17    7    8 2
    18    7    9 1
    19    9   10 1
    20    9   17 1
    21    9   11 1
    22   11   12 1
    23   11   13 1
    24   11   22 1
    25   13   14 1
    26   13   15 1
    27   13   21 1
    28   15   16 2
    29   15   35 1
    30   16   17 1
    31   16   18 1
    32   18   19 2
    33   18   20 1
    34   21   36 1
    35   21   37 1
    36   22   23 am
    37   22   38 1
    38   23   24 2
    39   23   25 1
    40   25   39 1
    41   25   40 1
    42   25   41 1
    43   26   42 1
    44   26   43 1
    45   26   44 1
@<TRIPOS>MOLECULE
CHEMBL344548
   50    50     0     0     0
SMALL
USER_CHARGES

@<TRIPOS>ATOM
      1 C1         -0.5018   -1.3017    0.8418 C.3       1 <0>        -0.1841
      2 C2         -0.3501   -2.1949   -0.3911 C.3       1 <0>         0.0948
      3 N1          0.4167   -1.4844   -1.4175 N.am      1 <0>        -0.6039
      4 C3          1.8645   -1.6834   -1.5191 C.3       1 <0>         0.1128
      5 C4          2.1540   -2.8455   -2.4713 C.3       1 <0>        -0.1699
      6 C5         -0.2099   -0.6477   -2.2682 C.2       1 <0>         0.5219
      7 O1          0.4038   -0.1430   -3.1845 O.2       1 <0>        -0.4769
      8 C6         -1.6731   -0.3392   -2.0809 C.3       1 <0>         0.0625
      9 H1         -2.0772   -0.9506   -1.2741 H         1 <0>         0.1074
     10 C7         -1.8494    1.1475   -1.7421 C.3       1 <0>         0.1130
     11 H2         -1.4940    1.7586   -2.5718 H         1 <0>         0.1339
     12 C8         -3.3410    1.4103   -1.5080 C.3       1 <0>         0.1744
     13 H3         -3.6398    0.9818   -0.5513 H         1 <0>         0.1183
     14 C9         -4.1407    0.7761   -2.6133 C.2       1 <0>        -0.3233
     15 C10        -3.6477   -0.1470   -3.3959 C.2       1 <0>         0.1397
     16 O2         -2.3822   -0.6104   -3.2932 O.3       1 <0>        -0.2732
     17 C11        -4.5358   -0.7254   -4.4673 C.3       1 <0>         0.3217
     18 O3         -3.9528   -0.4861   -5.7498 O.3       1 <0>        -0.5693
     19 O4         -4.6748   -2.1328   -4.2623 O.3       1 <0>        -0.5643
     20 N2         -3.5862    2.8545   -1.4942 N.pl3     1 <0>        -0.6464
     21 C12        -4.6155    3.3348   -0.8547 C.cat     1 <0>         0.7438
     22 N3         -5.4710    2.4859   -0.1932 N.pl3     1 <0>        -0.8125
     23 N4         -4.8457    4.6901   -0.8418 N.pl3     1 <0>        -0.8095
     24 N5         -1.0931    1.4715   -0.5300 N.am      1 <0>        -0.7373
     25 C13         0.1850    1.8886   -0.6245 C.2       1 <0>         0.5059
     26 O5          0.6788    2.0878   -1.7141 O.2       1 <0>        -0.4948
     27 C14         1.0004    2.1073    0.6238 C.3       1 <0>        -0.1724
     28 H4          0.4784   -1.1227    1.2836 H         1 <0>         0.0674
     29 H5         -0.9476   -0.3511    0.5491 H         1 <0>         0.0538
     30 H6         -1.1444   -1.7951    1.5710 H         1 <0>         0.0753
     31 H7          0.1737   -3.1100   -0.1146 H         1 <0>         0.0944
     32 H8         -1.3363   -2.4449   -0.7823 H         1 <0>         0.0763
     33 H9          2.3301   -0.7753   -1.9021 H         1 <0>         0.0866
     34 H10         2.2700   -1.9117   -0.5334 H         1 <0>         0.0816
     35 H11         3.2312   -2.9936   -2.5470 H         1 <0>         0.0721
     36 H12         1.6884   -3.7536   -2.0884 H         1 <0>         0.0573
     37 H13         1.7485   -2.6172   -3.4570 H         1 <0>         0.0614
     38 H14        -5.1611    1.0956   -2.7655 H         1 <0>         0.1492
     39 H15        -5.5169   -0.2527   -4.4202 H         1 <0>         0.1283
     40 H16        -4.4719   -0.8321   -6.4886 H         1 <0>         0.4020
     41 H17        -3.8393   -2.6188   -4.2912 H         1 <0>         0.3956
     42 H18        -5.3086    1.5296   -0.2023 H         1 <0>         0.4365
     43 H19        -6.2370    2.8433    0.2827 H         1 <0>         0.4397
     44 H20        -4.2421    5.2890   -1.3086 H         1 <0>         0.4398
     45 H21        -5.6116    5.0475   -0.3659 H         1 <0>         0.4404
     46 H22        -1.5123    1.3858    0.3406 H         1 <0>         0.4049
     47 H23         1.5822    1.2111    0.8394 H         1 <0>         0.1009
     48 H24         1.6744    2.9508    0.4744 H         1 <0>         0.1017
     49 H25         0.3345    2.3182    1.4606 H         1 <0>         0.0801
     50 H26        -2.9826    3.4535   -1.9610 H         1 <0>         0.4425
@<TRIPOS>BOND
     1    1    2 1
     2    1   28 1
     3    1   29 1
     4    1   30 1
     5    2    3 1
     6    2   31 1
     7    2   32 1
     8    3    4 1
     9    3    6 am
    10    4    5 1
    11    4   33 1
    12    4   34 1
    13    5   35 1
    14    5   36 1
    15    5   37 1
    16    6    7 2
    17    6    8 1
    18    8    9 1
    19    8   16 1
    20    8   10 1
    21   10   11 1
    22   10   12 1
    23   10   24 1
    24   12   13 1
    25   12   14 1
    26   12   20 1
    27   14   15 2
    28   14   38 1
    29   15   16 1
    30   15   17 1
    31   17   18 1
    32   17   19 1
    33   17   39 1
    34   18   40 1
    35   19   41 1
    36   20   21 2
    37   20   50 1
    38   21   22 1
    39   21   23 1
    40   22   42 1
    41   22   43 1
    42   23   44 1
    43   23   45 1
    44   24   25 am
    45   24   46 1
    46   25   26 2
    47   25   27 1
    48   27   47 1
    49   27   48 1
    50   27   49 1
@<TRIPOS>MOLECULE
CHEMBL352318
   65    67     0     0     0
SMALL
USER_CHARGES

@<TRIPOS>ATOM
      1 C1          0.7229    1.4877   -0.3560 C.3       1 <0>        -0.1540
      2 C2          0.4805   -0.0203   -0.2657 C.3       1 <0>        -0.1497
      3 C3         -1.0115   -0.2852   -0.0542 C.3       1 <0>         0.0968
      4 N1         -1.2252   -1.7157    0.1785 N.am      1 <0>        -0.6058
      5 C4         -1.2462   -2.2402    1.5463 C.3       1 <0>         0.1253
      6 C5         -2.6772   -2.1996    2.0861 C.3       1 <0>        -0.0976
      7 C6         -2.6988   -2.7392    3.4931 C.ar      1 <0>        -0.0779
      8 C7         -2.8951   -4.0911    3.7112 C.ar      1 <0>        -0.1081
      9 C8         -2.9160   -4.5930    4.9997 C.ar      1 <0>        -0.1126
     10 C9         -2.7406   -3.7464    6.0758 C.ar      1 <0>        -0.1118
     11 C10        -2.5421   -2.3841    5.8620 C.ar      1 <0>        -0.0456
     12 C11        -2.5171   -1.8846    4.5612 C.ar      1 <0>        -0.1060
     13 C12        -2.3533   -1.4691    7.0148 C.ar      1 <0>        -0.0443
     14 C13        -2.1606   -0.1058    6.8012 C.ar      1 <0>        -0.1120
     15 C14        -1.9860    0.7408    7.8772 C.ar      1 <0>        -0.1175
     16 C15        -2.0022    0.2381    9.1657 C.ar      1 <0>        -0.1196
     17 C16        -2.1931   -1.1144    9.3836 C.ar      1 <0>        -0.1167
     18 C17        -2.3740   -1.9693    8.3152 C.ar      1 <0>        -0.1114
     19 C18        -1.4026   -2.5492   -0.8656 C.2       1 <0>         0.5273
     20 O1         -1.5173   -3.7418   -0.6769 O.2       1 <0>        -0.4823
     21 C19        -1.4583   -1.9994   -2.2677 C.3       1 <0>         0.0537
     22 H1         -1.4153   -0.9107   -2.2372 H         1 <0>         0.1017
     23 C20        -0.2763   -2.5411   -3.0830 C.3       1 <0>         0.0958
     24 H2         -0.3540   -3.6250   -3.1673 H         1 <0>         0.1370
     25 C21        -0.3259   -1.9094   -4.4781 C.3       1 <0>         0.0882
     26 H3         -0.0289   -0.8626   -4.4138 H         1 <0>         0.1438
     27 C22        -1.7266   -2.0010   -5.0201 C.2       1 <0>        -0.3731
     28 C23        -2.7736   -2.2344   -4.2403 C.2       1 <0>         0.1414
     29 O2         -2.6711   -2.4163   -2.9010 O.3       1 <0>        -0.2584
     30 C24        -4.1078   -2.2985   -4.8571 C.2       1 <0>         0.5226
     31 O3         -4.2324   -2.1380   -6.0637 O.co2     1 <0>        -0.6483
     32 O4         -5.0928   -2.5123   -4.1634 O.co2     1 <0>        -0.6337
     33 N2          0.5933   -2.6252   -5.3728 N.4       1 <0>        -0.6264
     34 N3          0.9827   -2.1860   -2.4234 N.am      1 <0>        -0.7460
     35 C25         1.5727   -3.0588   -1.5829 C.2       1 <0>         0.5058
     36 O5          1.1145   -4.1734   -1.4463 O.2       1 <0>        -0.4953
     37 C26         2.8019   -2.6498   -0.8128 C.3       1 <0>        -0.1720
     38 H4          1.7939    1.6805   -0.4184 H         1 <0>         0.0602
     39 H5          0.2304    1.8824   -1.2447 H         1 <0>         0.0573
     40 H6          0.3172    1.9747    0.5308 H         1 <0>         0.0616
     41 H7          0.8067   -0.4967   -1.1903 H         1 <0>         0.0609
     42 H8          1.0446   -0.4294    0.5724 H         1 <0>         0.0713
     43 H9         -1.3620    0.2798    0.8095 H         1 <0>         0.0906
     44 H10        -1.5648    0.0254   -0.9405 H         1 <0>         0.0810
     45 H11        -0.8869   -3.2692    1.5463 H         1 <0>         0.0890
     46 H12        -0.6017   -1.6302    2.1792 H         1 <0>         0.0805
     47 H13        -3.0366   -1.1706    2.0860 H         1 <0>         0.0755
     48 H14        -3.3218   -2.8096    1.4531 H         1 <0>         0.0818
     49 H15        -3.0328   -4.7570    2.8721 H         1 <0>         0.1253
     50 H16        -3.0703   -5.6492    5.1643 H         1 <0>         0.1260
     51 H17        -2.7575   -4.1393    7.0817 H         1 <0>         0.1249
     52 H18        -2.3599   -0.8300    4.3897 H         1 <0>         0.1235
     53 H19        -2.1475    0.2877    5.7955 H         1 <0>         0.1237
     54 H20        -1.8362    1.7976    7.7127 H         1 <0>         0.1240
     55 H21        -1.8648    0.9041   10.0048 H         1 <0>         0.1230
     56 H22        -2.2045   -1.5017   10.3917 H         1 <0>         0.1246
     57 H23        -2.5275   -3.0245    8.4866 H         1 <0>         0.1253
     58 H24        -1.8847   -1.8719   -6.0806 H         1 <0>         0.1658
     59 H25         0.3183   -3.5941   -5.4324 H         1 <0>         0.4373
     60 H26         0.5606   -2.2092   -6.2915 H         1 <0>         0.4400
     61 H27         1.3917   -1.3226   -2.5917 H         1 <0>         0.4060
     62 H28         3.0112   -1.5959   -0.9957 H         1 <0>         0.0788
     63 H29         2.6322   -2.8070    0.2524 H         1 <0>         0.1016
     64 H30         3.6511   -3.2507   -1.1381 H         1 <0>         0.1003
     65 H31         1.5325   -2.5639   -5.0091 H         1 <0>         0.4263
@<TRIPOS>BOND
     1    1    2 1
     2    1   38 1
     3    1   39 1
     4    1   40 1
     5    2    3 1
     6    2   41 1
     7    2   42 1
     8    3    4 1
     9    3   43 1
    10    3   44 1
    11    4    5 1
    12    4   19 am
    13    5    6 1
    14    5   45 1
    15    5   46 1
    16    6    7 1
    17    6   47 1
    18    6   48 1
    19    7   12 ar
    20    7    8 ar
    21    8    9 ar
    22    8   49 1
    23    9   10 ar
    24    9   50 1
    25   10   11 ar
    26   10   51 1
    27   11   12 ar
    28   11   13 1
    29   12   52 1
    30   13   18 ar
    31   13   14 ar
    32   14   15 ar
    33   14   53 1
    34   15   16 ar
    35   15   54 1
    36   16   17 ar
    37   16   55 1
    38   17   18 ar
    39   17   56 1
    40   18   57 1
    41   19   20 2
    42   19   21 1
    43   21   22 1
    44   21   29 1
    45   21   23 1
    46   23   24 1
    47   23   25 1
    48   23   34 1
    49   25   26 1
    50   25   27 1
    51   25   33 1
    52   27   28 2
    53   27   58 1
    54   28   29 1
    55   28   30 1
    56   30   31 2
    57   30   32 1
    58   33   59 1
    59   33   60 1
    60   33   65 1
    61   34   35 am
    62   34   61 1
    63   35   36 2
    64   35   37 1
    65   37   62 1
    66   37   63 1
    67   37   64 1
@<TRIPOS>MOLECULE
CHEMBL352318__1
   64    66     0     0     0
SMALL
USER_CHARGES

@<TRIPOS>ATOM
      1 C1         -0.8821    1.8823    0.2991 C.3       1 <0>        -0.1325
      2 C2         -0.7082    0.3680    0.4315 C.3       1 <0>        -0.1322
      3 C3         -2.0510   -0.3230    0.1858 C.3       1 <0>         0.1078
      4 N1         -1.9136   -1.7600    0.4353 N.am      1 <0>        -0.5935
      5 C4         -2.0848   -2.2876    1.7912 C.3       1 <0>         0.1206
      6 C5         -3.5544   -2.6490    2.0161 C.3       1 <0>        -0.0949
      7 C6         -3.7305   -3.1918    3.4109 C.ar      1 <0>        -0.0713
      8 C7         -3.5949   -4.5483    3.6461 C.ar      1 <0>        -0.1091
      9 C8         -3.7551   -5.0532    4.9237 C.ar      1 <0>        -0.1152
     10 C9         -4.0511   -4.2050    5.9717 C.ar      1 <0>        -0.1149
     11 C10        -4.1884   -2.8380    5.7406 C.ar      1 <0>        -0.0470
     12 C11        -4.0211   -2.3340    4.4521 C.ar      1 <0>        -0.1041
     13 C12        -4.5070   -1.9213    6.8632 C.ar      1 <0>        -0.0419
     14 C13        -4.6500   -0.5548    6.6310 C.ar      1 <0>        -0.1104
     15 C14        -4.9468    0.2932    7.6787 C.ar      1 <0>        -0.1163
     16 C15        -5.1023   -0.2112    8.9573 C.ar      1 <0>        -0.1217
     17 C16        -4.9615   -1.5668    9.1934 C.ar      1 <0>        -0.1190
     18 C17        -4.6700   -2.4246    8.1522 C.ar      1 <0>        -0.1129
     19 C18        -1.6298   -2.5966   -0.5825 C.2       1 <0>         0.5423
     20 O1         -1.4552   -3.7772   -0.3664 O.2       1 <0>        -0.5397
     21 C19        -1.5293   -2.0652   -1.9891 C.3       1 <0>         0.0525
     22 H1         -0.9609   -2.7619   -2.6052 H         1 <0>         0.0996
     23 C20        -2.9360   -1.8851   -2.5756 C.3       1 <0>         0.1240
     24 H2         -3.4830   -1.1407   -1.9969 H         1 <0>         0.1158
     25 C21        -2.7943   -1.4103   -4.0256 C.3       1 <0>         0.1304
     26 H3         -2.4504   -2.2373   -4.6468 H         1 <0>         0.0371
     27 C22        -1.7963   -0.2861   -4.0895 C.2       1 <0>        -0.2510
     28 C23        -0.9319   -0.0503   -3.1117 C.2       1 <0>         0.0344
     29 O2         -0.8795   -0.7911   -1.9777 O.3       1 <0>        -0.2718
     30 C24         0.0138    1.0662   -3.2649 C.2       1 <0>         0.5363
     31 O3         -0.0089    1.7527   -4.2774 O.co2     1 <0>        -0.6694
     32 O4          0.8231    1.3083   -2.3797 O.co2     1 <0>        -0.6581
     33 N2         -4.0961   -0.9380   -4.5157 N.3       1 <0>        -0.8264
     34 N3         -3.6529   -3.1622   -2.5409 N.am      1 <0>        -0.7253
     35 C25        -4.9951   -3.1785   -2.4189 C.2       1 <0>         0.5059
     36 O5         -5.6176   -2.1377   -2.4298 O.2       1 <0>        -0.5253
     37 C26        -5.7222   -4.4899   -2.2691 C.3       1 <0>        -0.1706
     38 H4          0.0540    2.3792    0.5540 H         1 <0>         0.0542
     39 H5         -1.1565    2.1282   -0.7267 H         1 <0>         0.0619
     40 H6         -1.6678    2.2183    0.9759 H         1 <0>         0.0350
     41 H7          0.0190    0.0203   -0.3022 H         1 <0>         0.1004
     42 H8         -0.3549    0.1292    1.4346 H         1 <0>         0.0450
     43 H9         -2.8018    0.0924    0.8580 H         1 <0>         0.0649
     44 H10        -2.3591   -0.1614   -0.8473 H         1 <0>         0.0940
     45 H11        -1.4686   -3.1782    1.9151 H         1 <0>         0.0855
     46 H12        -1.7814   -1.5322    2.5161 H         1 <0>         0.0800
     47 H13        -4.1706   -1.7585    1.8923 H         1 <0>         0.0749
     48 H14        -3.8578   -3.4045    1.2913 H         1 <0>         0.0756
     49 H15        -3.3633   -5.2155    2.8291 H         1 <0>         0.1242
     50 H16        -3.6488   -6.1131    5.1016 H         1 <0>         0.1236
     51 H17        -4.1764   -4.6003    6.9689 H         1 <0>         0.1229
     52 H18        -4.1227   -1.2747    4.2681 H         1 <0>         0.1253
     53 H19        -4.5284   -0.1600    5.6332 H         1 <0>         0.1263
     54 H20        -5.0575    1.3525    7.5000 H         1 <0>         0.1245
     55 H21        -5.3342    0.4560    9.7743 H         1 <0>         0.1216
     56 H22        -5.0836   -1.9552   10.1937 H         1 <0>         0.1227
     57 H23        -4.5647   -3.4834    8.3369 H         1 <0>         0.1243
     58 H24        -1.7831    0.3504   -4.9619 H         1 <0>         0.1368
     59 H25        -4.0290   -0.6193   -5.4707 H         1 <0>         0.3402
     60 H26        -4.7995   -1.6554   -4.4226 H         1 <0>         0.3397
     61 H27        -3.1617   -3.9961   -2.6057 H         1 <0>         0.4027
     62 H28        -4.9975   -5.3005   -2.1920 H         1 <0>         0.0750
     63 H29        -6.3358   -4.4643   -1.3685 H         1 <0>         0.0937
     64 H30        -6.3592   -4.6536   -3.1382 H         1 <0>         0.0928
@<TRIPOS>BOND
     1    1    2 1
     2    1   38 1
     3    1   39 1
     4    1   40 1
     5    2    3 1
     6    2   41 1
     7    2   42 1
     8    3    4 1
     9    3   43 1
    10    3   44 1
    11    4    5 1
    12    4   19 am
    13    5    6 1
    14    5   45 1
    15    5   46 1
    16    6    7 1
    17    6   47 1
    18    6   48 1
    19    7   12 ar
    20    7    8 ar
    21    8    9 ar
    22    8   49 1
    23    9   10 ar
    24    9   50 1
    25   10   11 ar
    26   10   51 1
    27   11   12 ar
    28   11   13 1
    29   12   52 1
    30   13   18 ar
    31   13   14 ar
    32   14   15 ar
    33   14   53 1
    34   15   16 ar
    35   15   54 1
    36   16   17 ar
    37   16   55 1
    38   17   18 ar
    39   17   56 1
    40   18   57 1
    41   19   20 2
    42   19   21 1
    43   21   22 1
    44   21   29 1
    45   21   23 1
    46   23   24 1
    47   23   25 1
    48   23   34 1
    49   25   26 1
    50   25   27 1
    51   25   33 1
    52   27   28 2
    53   27   58 1
    54   28   29 1
    55   28   30 1
    56   30   31 2
    57   30   32 1
    58   33   59 1
    59   33   60 1
    60   34   35 am
    61   34   61 1
    62   35   36 2
    63   35   37 1
    64   37   62 1
    65   37   63 1
    66   37   64 1
@<TRIPOS>MOLECULE
CHEMBL81717
   49    49     0     0     0
SMALL
USER_CHARGES

@<TRIPOS>ATOM
      1 C1         -0.0187    1.5258    0.0104 C.3       1 <0>        -0.1634
      2 C2          0.0021   -0.0041    0.0020 C.3       1 <0>        -0.1463
      3 C3          0.7182   -0.4975   -1.2568 C.3       1 <0>         0.0905
      4 C4          0.8493   -2.0210   -1.2049 C.3       1 <0>        -0.1176
      5 C5          1.6735   -2.5029   -2.4004 C.3       1 <0>        -0.1516
      6 O1         -0.0359   -0.1233   -2.4115 O.3       1 <0>        -0.3692
      7 C6          0.3165    1.1538   -2.9471 C.3       1 <0>         0.1061
      8 H1          0.6666    1.7993   -2.1416 H         1 <0>         0.0931
      9 C7          1.4110    0.9838   -3.9600 C.2       1 <0>        -0.1592
     10 C8          1.2159    1.0241   -5.2630 C.2       1 <0>        -0.1543
     11 C9         -0.1243    1.2532   -5.8989 C.3       1 <0>        -0.0838
     12 C10        -1.2395    1.0053   -4.8811 C.3       1 <0>         0.1195
     13 H2         -1.2991   -0.0594   -4.6553 H         1 <0>         0.1212
     14 C11        -0.9126    1.7847   -3.6047 C.3       1 <0>         0.1499
     15 H3         -1.7601    1.7342   -2.9212 H         1 <0>         0.1102
     16 N1         -0.6285    3.1822   -3.9401 N.am      1 <0>        -0.7284
     17 C12        -0.7936    4.1450   -3.0115 C.2       1 <0>         0.5133
     18 O2         -1.1775    3.8545   -1.8984 O.2       1 <0>        -0.5331
     19 C13        -0.5014    5.5826   -3.3565 C.3       1 <0>        -0.1739
     20 N2         -2.5178    1.4643   -5.4301 N.pl3     1 <0>        -0.6855
     21 C14        -3.2519    0.6383   -6.2363 C.cat     1 <0>         0.7439
     22 N3         -4.4142    1.0556   -6.7354 N.pl3     1 <0>        -0.7996
     23 N4         -2.8045   -0.5832   -6.5222 N.pl3     1 <0>        -0.7909
     24 C15         2.3749    0.8338   -6.1420 C.2       1 <0>         0.5104
     25 O3          3.4837    0.6441   -5.6602 O.co2     1 <0>        -0.6756
     26 O4          2.2329    0.8646   -7.3571 O.co2     1 <0>        -0.6909
     27 H4          1.0039    1.9031    0.0027 H         1 <0>         0.0494
     28 H5         -0.5459    1.8868   -0.8726 H         1 <0>         0.0738
     29 H6         -0.5289    1.8773    0.9072 H         1 <0>         0.0542
     30 H7          0.5293   -0.3651    0.8851 H         1 <0>         0.0707
     31 H8         -1.0205   -0.3814    0.0098 H         1 <0>         0.0676
     32 H9          1.7103   -0.0491   -1.3098 H         1 <0>         0.0660
     33 H10         1.3468   -2.3116   -0.2797 H         1 <0>         0.0746
     34 H11        -0.1422   -2.4724   -1.2416 H         1 <0>         0.0668
     35 H12         1.1760   -2.2123   -3.3257 H         1 <0>         0.0606
     36 H13         2.6650   -2.0515   -2.3638 H         1 <0>         0.0564
     37 H14         1.7669   -3.5883   -2.3635 H         1 <0>         0.0525
     38 H15         2.4161    0.8193   -3.6006 H         1 <0>         0.1264
     39 H16        -0.1836    2.2811   -6.2567 H         1 <0>         0.0828
     40 H17        -0.2458    0.5720   -6.7412 H         1 <0>         0.0904
     41 H18        -0.3214    3.4146   -4.8304 H         1 <0>         0.4080
     42 H19        -0.1704    5.6475   -4.3930 H         1 <0>         0.0783
     43 H20        -1.4046    6.1785   -3.2255 H         1 <0>         0.0971
     44 H21         0.2823    5.9616   -2.7004 H         1 <0>         0.1005
     45 H22        -2.8437    2.3538   -5.2218 H         1 <0>         0.4319
     46 H23        -4.7400    1.9452   -6.5272 H         1 <0>         0.4380
     47 H24        -1.9581   -0.8871   -6.1587 H         1 <0>         0.4431
     48 H25        -3.3251   -1.1689   -7.0940 H         1 <0>         0.4380
     49 H26        -4.9348    0.4699   -7.3071 H         1 <0>         0.4381
@<TRIPOS>BOND
     1    1    2 1
     2    1   27 1
     3    1   28 1
     4    1   29 1
     5    2    3 1
     6    2   30 1
     7    2   31 1
     8    3    4 1
     9    3    6 1
    10    3   32 1
    11    4    5 1
    12    4   33 1
    13    4   34 1
    14    5   35 1
    15    5   36 1
    16    5   37 1
    17    6    7 1
    18    7    8 1
    19    7   14 1
    20    7    9 1
    21    9   10 2
    22    9   38 1
    23   10   11 1
    24   10   24 1
    25   11   12 1
    26   11   39 1
    27   11   40 1
    28   12   13 1
    29   12   14 1
    30   12   20 1
    31   14   15 1
    32   14   16 1
    33   16   17 am
    34   16   41 1
    35   17   18 2
    36   17   19 1
    37   19   42 1
    38   19   43 1
    39   19   44 1
    40   20   21 1
    41   20   45 1
    42   21   22 2
    43   21   23 1
    44   22   46 1
    45   22   49 1
    46   23   47 1
    47   23   48 1
    48   24   25 2
    49   24   26 1
@<TRIPOS>MOLECULE
CHEMBL1229
   51    51     0     0     0
SMALL
USER_CHARGES

@<TRIPOS>ATOM
      1 C1         -0.0187    1.5258    0.0104 C.3       1 <0>        -0.1532
      2 C2          0.0021   -0.0041    0.0020 C.3       1 <0>        -0.1222
      3 C3          0.7182   -0.4975   -1.2568 C.3       1 <0>         0.0857
      4 C4          0.8493   -2.0210   -1.2049 C.3       1 <0>        -0.1497
      5 C5          1.6735   -2.5029   -2.4004 C.3       1 <0>        -0.1692
      6 O1         -0.0359   -0.1233   -2.4115 O.3       1 <0>        -0.3300
      7 C6          0.7591    0.1000   -3.5777 C.3       1 <0>         0.0980
      8 H1          1.6460   -0.5323   -3.5369 H         1 <0>         0.1073
      9 C7          1.1771    1.5408   -3.6266 C.2       1 <0>        -0.0678
     10 C8          1.1660    2.2692   -4.7231 C.2       1 <0>        -0.1450
     11 C9          0.7250    1.7548   -6.0624 C.3       1 <0>        -0.0925
     12 C10         0.7119    0.2247   -6.0606 C.3       1 <0>         0.0229
     13 H2          1.7348   -0.1501   -6.0243 H         1 <0>         0.1580
     14 C11        -0.0574   -0.2513   -4.8231 C.3       1 <0>         0.1266
     15 H3         -1.0261    0.2463   -4.7782 H         1 <0>         0.1328
     16 N1         -0.2479   -1.7021   -4.8936 N.am      1 <0>        -0.7551
     17 C12        -1.2641   -2.2817   -4.2244 C.2       1 <0>         0.5147
     18 O2         -2.0208   -1.6022   -3.5637 O.2       1 <0>        -0.4878
     19 C13        -1.4600   -3.7742   -4.2969 C.3       1 <0>        -0.1755
     20 N2          0.0500   -0.2646   -7.2773 N.4       1 <0>        -0.6302
     21 C14         1.6106    3.6668   -4.6304 C.2       1 <0>         0.4950
     22 O3          1.9746    4.1191   -3.5627 O.2       1 <0>        -0.4879
     23 O4          1.6147    4.4471   -5.7296 O.3       1 <0>        -0.3516
     24 C15         2.0593    5.7953   -5.5664 C.3       1 <0>         0.0602
     25 C16         1.9942    6.5202   -6.9122 C.3       1 <0>        -0.1533
     26 H4          1.0039    1.9031    0.0027 H         1 <0>         0.0518
     27 H5         -0.5459    1.8868   -0.8726 H         1 <0>         0.0584
     28 H6         -0.5289    1.8773    0.9072 H         1 <0>         0.0603
     29 H7          0.5293   -0.3651    0.8851 H         1 <0>         0.0805
     30 H8         -1.0205   -0.3814    0.0098 H         1 <0>         0.0757
     31 H9          1.7103   -0.0491   -1.3098 H         1 <0>         0.0644
     32 H10         1.3468   -2.3116   -0.2797 H         1 <0>         0.0787
     33 H11        -0.1422   -2.4724   -1.2416 H         1 <0>         0.0743
     34 H12         1.7669   -3.5883   -2.3635 H         1 <0>         0.0624
     35 H13         1.1760   -2.2123   -3.3257 H         1 <0>         0.0583
     36 H14         2.6650   -2.0515   -2.3638 H         1 <0>         0.0543
     37 H15         1.5062    2.0066   -2.7095 H         1 <0>         0.1485
     38 H16        -0.2772    2.1244   -6.2793 H         1 <0>         0.1118
     39 H17         1.4127    2.1094   -6.8301 H         1 <0>         0.1204
     40 H18         0.3573   -2.2457   -5.4220 H         1 <0>         0.3997
     41 H19        -0.6897   -4.2113   -4.9323 H         1 <0>         0.0773
     42 H20        -1.3894   -4.1990   -3.2956 H         1 <0>         0.1038
     43 H21        -2.4427   -3.9917   -4.7154 H         1 <0>         0.1026
     44 H22         0.5511    0.0653   -8.0887 H         1 <0>         0.4440
     45 H23         0.0428   -1.2735   -7.2737 H         1 <0>         0.4357
     46 H24         1.4175    6.3051   -4.8478 H         1 <0>         0.0733
     47 H25         3.0865    5.7976   -5.2018 H         1 <0>         0.0730
     48 H26         2.6360    6.0105   -7.6308 H         1 <0>         0.0671
     49 H27         0.9670    6.5180   -7.2768 H         1 <0>         0.0677
     50 H28         2.3333    7.5486   -6.7877 H         1 <0>         0.0864
     51 H29        -0.8985    0.0785   -7.3054 H         1 <0>         0.4394
@<TRIPOS>BOND
     1    1    2 1
     2    1   26 1
     3    1   27 1
     4    1   28 1
     5    2    3 1
     6    2   29 1
     7    2   30 1
     8    3    4 1
     9    3    6 1
    10    3   31 1
    11    4    5 1
    12    4   32 1
    13    4   33 1
    14    5   34 1
    15    5   35 1
    16    5   36 1
    17    6    7 1
    18    7    8 1
    19    7   14 1
    20    7    9 1
    21    9   10 2
    22    9   37 1
    23   10   11 1
    24   10   21 1
    25   11   12 1
    26   11   38 1
    27   11   39 1
    28   12   13 1
    29   12   14 1
    30   12   20 1
    31   14   15 1
    32   14   16 1
    33   16   17 am
    34   16   40 1
    35   17   18 2
    36   17   19 1
    37   19   41 1
    38   19   42 1
    39   19   43 1
    40   20   44 1
    41   20   45 1
    42   20   51 1
    43   21   22 2
    44   21   23 1
    45   23   24 1
    46   24   25 1
    47   24   46 1
    48   24   47 1
    49   25   48 1
    50   25   49 1
    51   25   50 1
@<TRIPOS>MOLECULE
CHEMBL1229__1
   50    50     0     0     0
SMALL
USER_CHARGES

@<TRIPOS>ATOM
      1 C1         -0.0187    1.5258    0.0104 C.3       1 <0>        -0.1517
      2 C2          0.0021   -0.0041    0.0020 C.3       1 <0>        -0.1196
      3 C3         -1.4333   -0.5336    0.0129 C.3       1 <0>         0.0838
      4 C4         -1.4157   -2.0577   -0.1212 C.3       1 <0>        -0.1456
      5 C5         -2.8505   -2.5762   -0.2357 C.3       1 <0>        -0.1716
      6 O1         -2.0656   -0.1709    1.2420 O.3       1 <0>        -0.3329
      7 C6         -3.4782    0.0166    1.1357 C.3       1 <0>         0.0965
      8 H1         -3.8702   -0.6285    0.3494 H         1 <0>         0.0925
      9 C7         -3.7656    1.4494    0.7932 C.2       1 <0>        -0.0793
     10 C8         -4.7277    2.1559    1.3484 C.2       1 <0>        -0.1400
     11 C9         -5.6540    1.6217    2.4018 C.3       1 <0>        -0.0703
     12 C10        -5.6076    0.0924    2.4175 C.3       1 <0>         0.0895
     13 H2         -6.0778   -0.2975    1.5148 H         1 <0>         0.0478
     14 C11        -4.1397   -0.3468    2.4667 C.3       1 <0>         0.1576
     15 H3         -3.6292    0.1667    3.2815 H         1 <0>         0.1111
     16 N1         -4.0691   -1.7956    2.6720 N.am      1 <0>        -0.7293
     17 C12        -2.9673   -2.3458    3.2195 C.2       1 <0>         0.5126
     18 O2         -2.0342   -1.6414    3.5422 O.2       1 <0>        -0.5116
     19 C13        -2.8947   -3.8361    3.4307 C.3       1 <0>        -0.1771
     20 N2         -6.3180   -0.4107    3.6008 N.3       1 <0>        -0.8375
     21 C14        -4.9047    3.5479    0.9121 C.2       1 <0>         0.5001
     22 O3         -4.1735    4.0158    0.0615 O.2       1 <0>        -0.5056
     23 O4         -5.8781    4.3060    1.4554 O.3       1 <0>        -0.3458
     24 C15        -5.9928    5.6501    0.9841 C.3       1 <0>         0.0598
     25 C16        -7.1437    6.3489    1.7107 C.3       1 <0>        -0.1523
     26 H4          1.0039    1.9031    0.0027 H         1 <0>         0.0550
     27 H5         -0.5459    1.8868   -0.8726 H         1 <0>         0.0500
     28 H6         -0.5289    1.8773    0.9072 H         1 <0>         0.0615
     29 H7          0.5123   -0.3556   -0.8948 H         1 <0>         0.0734
     30 H8          0.5293   -0.3651    0.8851 H         1 <0>         0.0736
     31 H9         -1.9862   -0.1019   -0.8214 H         1 <0>         0.0584
     32 H10        -0.8559   -2.3374   -1.0137 H         1 <0>         0.0703
     33 H11        -0.9406   -2.4942    0.7573 H         1 <0>         0.0730
     34 H12        -3.4103   -2.2964    0.6568 H         1 <0>         0.0684
     35 H13        -3.3256   -2.1397   -1.1142 H         1 <0>         0.0511
     36 H14        -2.8380   -3.6619   -0.3312 H         1 <0>         0.0568
     37 H15        -3.1477    1.9283    0.0480 H         1 <0>         0.1337
     38 H16        -5.3503    2.0025    3.3769 H         1 <0>         0.0985
     39 H17        -6.6713    1.9501    2.1887 H         1 <0>         0.0891
     40 H18        -4.8154   -2.3589    2.4140 H         1 <0>         0.3950
     41 H19        -2.9940   -4.3443    2.4715 H         1 <0>         0.0848
     42 H20        -1.9357   -4.0931    3.8805 H         1 <0>         0.0923
     43 H21        -3.7021   -4.1490    4.0929 H         1 <0>         0.0869
     44 H22        -7.2835   -0.1178    3.5945 H         1 <0>         0.3500
     45 H23        -6.2452   -1.4150    3.6664 H         1 <0>         0.3446
     46 H24        -5.0627    6.1840    1.1788 H         1 <0>         0.0688
     47 H25        -6.1904    5.6437   -0.0878 H         1 <0>         0.0680
     48 H26        -7.2312    7.3741    1.3512 H         1 <0>         0.0808
     49 H27        -8.0738    5.8149    1.5160 H         1 <0>         0.0669
     50 H28        -6.9460    6.3553    2.7826 H         1 <0>         0.0680
@<TRIPOS>BOND
     1    1    2 1
     2    1   26 1
     3    1   27 1
     4    1   28 1
     5    2    3 1
     6    2   29 1
     7    2   30 1
     8    3    4 1
     9    3    6 1
    10    3   31 1
    11    4    5 1
    12    4   32 1
    13    4   33 1
    14    5   34 1
    15    5   35 1
    16    5   36 1
    17    6    7 1
    18    7    8 1
    19    7   14 1
    20    7    9 1
    21    9   10 2
    22    9   37 1
    23   10   11 1
    24   10   21 1
    25   11   12 1
    26   11   38 1
    27   11   39 1
    28   12   13 1
    29   12   14 1
    30   12   20 1
    31   14   15 1
    32   14   16 1
    33   16   17 am
    34   16   40 1
    35   17   18 2
    36   17   19 1
    37   19   41 1
    38   19   42 1
    39   19   43 1
    40   20   44 1
    41   20   45 1
    42   21   22 2
    43   21   23 1
    44   23   24 1
    45   24   25 1
    46   24   46 1
    47   24   47 1
    48   25   48 1
    49   25   49 1
    50   25   50 1
@<TRIPOS>MOLECULE
CHEMBL315261
   60    61     0     0     0
SMALL
USER_CHARGES

@<TRIPOS>ATOM
      1 C1          0.1797    2.0482   -0.3894 C.3       1 <0>        -0.1531
      2 C2          0.1050    0.5519   -0.0789 C.3       1 <0>        -0.1204
      3 C3          0.6499   -0.2433   -1.2670 C.3       1 <0>         0.0885
      4 H1          1.6644    0.0867   -1.4906 H         1 <0>         0.0636
      5 C4          0.6631   -1.7335   -0.9203 C.3       1 <0>        -0.1385
      6 C5          1.3225   -2.5159   -2.0578 C.3       1 <0>        -0.1209
      7 C6          1.3357   -4.0061   -1.7111 C.3       1 <0>        -0.0842
      8 C7          2.2281   -4.2377   -0.4901 C.3       1 <0>        -0.1170
      9 C8          2.2413   -5.7278   -0.1434 C.3       1 <0>        -0.1210
     10 C9          2.7861   -6.5231   -1.3315 C.3       1 <0>        -0.1212
     11 C10         1.8938   -6.2915   -2.5525 C.3       1 <0>        -0.1196
     12 C11         1.8805   -4.8013   -2.8992 C.3       1 <0>        -0.1106
     13 O1         -0.1836   -0.0270   -2.4074 O.3       1 <0>        -0.3388
     14 C12         0.5327    0.0760   -3.6397 C.3       1 <0>         0.1164
     15 H2          1.3763   -0.6140   -3.6260 H         1 <0>         0.0772
     16 C13         1.0399    1.4790   -3.8046 C.2       1 <0>        -0.1627
     17 C14         0.9919    2.1464   -4.9404 C.2       1 <0>        -0.1611
     18 C15         0.4166    1.5908   -6.2106 C.3       1 <0>        -0.0812
     19 C16         0.3041    0.0679   -6.1158 C.3       1 <0>         0.0202
     20 H3          1.3001   -0.3745   -6.1313 H         1 <0>         0.1498
     21 C17        -0.3984   -0.2842   -4.7992 C.3       1 <0>         0.1324
     22 H4         -1.3257    0.2823   -4.7138 H         1 <0>         0.1261
     23 N1         -0.6897   -1.7197   -4.7688 N.am      1 <0>        -0.7539
     24 C18        -1.6879   -2.1884   -3.9939 C.2       1 <0>         0.5128
     25 O2         -2.3450   -1.4219   -3.3219 O.2       1 <0>        -0.4912
     26 C19        -1.9876   -3.6650   -3.9626 C.3       1 <0>        -0.1733
     27 N2         -0.4793   -0.4406   -7.2497 N.4       1 <0>        -0.6303
     28 C20         1.5321    3.5101   -4.9644 C.2       1 <0>         0.5110
     29 O3          2.0098    3.9971   -3.9484 O.co2     1 <0>        -0.6712
     30 O4          1.5051    4.1608   -6.0005 O.co2     1 <0>        -0.6879
     31 H5          1.2232    2.3470   -0.4890 H         1 <0>         0.0550
     32 H6         -0.3473    2.2526   -1.3214 H         1 <0>         0.0644
     33 H7         -0.2837    2.6110    0.4209 H         1 <0>         0.0531
     34 H8          0.7008    0.3346    0.8076 H         1 <0>         0.0715
     35 H9         -0.9321    0.2697    0.1022 H         1 <0>         0.0686
     36 H10         1.2259   -1.8873    0.0004 H         1 <0>         0.0740
     37 H11        -0.3600   -2.0838   -0.7837 H         1 <0>         0.0696
     38 H12         0.7597   -2.3621   -2.9785 H         1 <0>         0.0650
     39 H13         2.3455   -2.1656   -2.1945 H         1 <0>         0.0584
     40 H14         0.3212   -4.3361   -1.4876 H         1 <0>         0.0676
     41 H15         3.2426   -3.9077   -0.7136 H         1 <0>         0.0612
     42 H16         1.8399   -3.6712    0.3564 H         1 <0>         0.0645
     43 H17         2.8770   -5.8929    0.7265 H         1 <0>         0.0614
     44 H18         1.2268   -6.0579    0.0802 H         1 <0>         0.0604
     45 H19         3.8006   -6.1930   -1.5550 H         1 <0>         0.0609
     46 H20         2.7956   -7.5847   -1.0845 H         1 <0>         0.0605
     47 H21         2.2819   -6.8580   -3.3990 H         1 <0>         0.0596
     48 H22         0.8793   -6.6215   -2.3290 H         1 <0>         0.0604
     49 H23         1.2448   -4.6363   -3.7691 H         1 <0>         0.0533
     50 H24         2.8950   -4.4713   -3.1228 H         1 <0>         0.0607
     51 H25         1.4685    1.9699   -2.9434 H         1 <0>         0.1368
     52 H26        -0.5731    2.0167   -6.3756 H         1 <0>         0.0955
     53 H27         1.0650    1.8540   -7.0463 H         1 <0>         0.1104
     54 H28        -0.1642   -2.3327   -5.3063 H         1 <0>         0.3940
     55 H29        -1.2990   -4.1896   -4.6250 H         1 <0>         0.0740
     56 H30        -1.8688   -4.0384   -2.9455 H         1 <0>         0.0999
     57 H31        -3.0117   -3.8350   -4.2948 H         1 <0>         0.0972
     58 H32        -0.0213   -0.1916   -8.1135 H         1 <0>         0.4403
     59 H33        -0.5520   -1.4449   -7.1848 H         1 <0>         0.4265
     60 H34        -1.4028   -0.0345   -7.2294 H         1 <0>         0.4356
@<TRIPOS>BOND
     1    1    2 1
     2    1   31 1
     3    1   32 1
     4    1   33 1
     5    2    3 1
     6    2   34 1
     7    2   35 1
     8    3    4 1
     9    3    5 1
    10    3   13 1
    11    5    6 1
    12    5   36 1
    13    5   37 1
    14    6    7 1
    15    6   38 1
    16    6   39 1
    17    7   12 1
    18    7    8 1
    19    7   40 1
    20    8    9 1
    21    8   41 1
    22    8   42 1
    23    9   10 1
    24    9   43 1
    25    9   44 1
    26   10   11 1
    27   10   45 1
    28   10   46 1
    29   11   12 1
    30   11   47 1
    31   11   48 1
    32   12   49 1
    33   12   50 1
    34   13   14 1
    35   14   15 1
    36   14   21 1
    37   14   16 1
    38   16   17 2
    39   16   51 1
    40   17   18 1
    41   17   28 1
    42   18   19 1
    43   18   52 1
    44   18   53 1
    45   19   20 1
    46   19   21 1
    47   19   27 1
    48   21   22 1
    49   21   23 1
    50   23   24 am
    51   23   54 1
    52   24   25 2
    53   24   26 1
    54   26   55 1
    55   26   56 1
    56   26   57 1
    57   27   58 1
    58   27   59 1
    59   27   60 1
    60   28   29 2
    61   28   30 1
@<TRIPOS>MOLECULE
CHEMBL292853
   50    51     0     0     0
SMALL
USER_CHARGES

@<TRIPOS>ATOM
      1 C1         -2.5976    1.3557   -0.4983 C.3       1 <0>        -0.1764
      2 C2         -2.3544   -0.1279   -0.6022 C.2       1 <0>         0.5163
      3 O1         -3.0467   -0.8063   -1.3313 O.2       1 <0>        -0.5442
      4 N1         -1.3677   -0.7009    0.1150 N.am      1 <0>        -0.7151
      5 C3         -1.1966   -2.1558    0.0939 C.3       1 <0>         0.1353
      6 C4         -0.5322   -2.6101    1.3950 C.3       1 <0>        -0.1061
      7 H1         -0.3833   -3.6899    1.3895 H         1 <0>         0.1058
      8 C5          0.8174   -1.8779    1.5990 C.3       1 <0>        -0.0860
      9 C6          1.0243   -1.9633    3.1316 C.3       1 <0>        -0.1576
     10 C7         -0.3909   -1.7742    3.7156 C.3       1 <0>        -0.1135
     11 C8         -1.3824   -2.1886    2.6113 C.3       1 <0>         0.1116
     12 H2         -2.0199   -1.3450    2.3468 H         1 <0>         0.1092
     13 N2         -2.2020   -3.3148    3.0652 N.pl3     1 <0>        -0.6459
     14 C9         -3.3088   -3.0942    3.7173 C.cat     1 <0>         0.7377
     15 N3         -3.7071   -1.8047    3.9791 N.pl3     1 <0>        -0.8115
     16 N4         -4.0780   -4.1511    4.1433 N.pl3     1 <0>        -0.8189
     17 C10         1.9404   -0.8631    3.6022 C.2       1 <0>         0.4949
     18 O2          1.8169   -0.4057    4.7257 O.co2     1 <0>        -0.6928
     19 O3          2.8050   -0.4303    2.8595 O.co2     1 <0>        -0.6805
     20 C11        -0.3280   -2.5425   -1.0754 C.2       1 <0>         0.5105
     21 O4          0.3925   -1.7167   -1.5948 O.2       1 <0>        -0.5075
     22 N5         -0.3519   -3.8060   -1.5438 N.am      1 <0>        -0.6151
     23 C12        -1.2225   -4.8236   -0.9339 C.3       1 <0>         0.0708
     24 C13        -2.0235   -5.5057   -2.0488 C.3       1 <0>         0.0456
     25 O5         -1.1244   -5.9637   -3.0616 O.3       1 <0>        -0.3756
     26 C14        -0.3932   -4.9206   -3.7104 C.3       1 <0>         0.0473
     27 C15         0.4872   -4.2071   -2.6841 C.3       1 <0>         0.0762
     28 H3         -3.4293    1.6337   -1.1457 H         1 <0>         0.0958
     29 H4         -2.8382    1.6131    0.5331 H         1 <0>         0.0906
     30 H5         -1.7012    1.8933   -0.8073 H         1 <0>         0.0967
     31 H6         -0.7707   -0.1501    0.6453 H         1 <0>         0.4147
     32 H7         -2.1708   -2.6348   -0.0031 H         1 <0>         0.1087
     33 H8          1.6201   -2.3933    1.0716 H         1 <0>         0.0823
     34 H9          0.7461   -0.8393    1.2761 H         1 <0>         0.0816
     35 H10         1.4242   -2.9386    3.4089 H         1 <0>         0.0766
     36 H11        -0.5220   -2.4109    4.5905 H         1 <0>         0.0751
     37 H12        -0.5466   -0.7299    3.9865 H         1 <0>         0.0950
     38 H13        -3.1644   -1.0590    3.6785 H         1 <0>         0.4382
     39 H14        -4.5308   -1.6405    4.4644 H         1 <0>         0.4354
     40 H15        -3.7970   -5.0610    3.9586 H         1 <0>         0.4360
     41 H16        -4.9017   -3.9870    4.6286 H         1 <0>         0.4361
     42 H17        -0.6139   -5.5633   -0.4138 H         1 <0>         0.0831
     43 H18        -1.9051   -4.3483   -0.2295 H         1 <0>         0.0842
     44 H19        -2.5708   -6.3537   -1.6373 H         1 <0>         0.1068
     45 H20        -2.7259   -4.7930   -2.4808 H         1 <0>         0.0588
     46 H21         0.2324   -5.3476   -4.4943 H         1 <0>         0.1116
     47 H22        -1.0897   -4.2057   -4.1484 H         1 <0>         0.0577
     48 H23         0.9361   -3.3237   -3.1382 H         1 <0>         0.1048
     49 H24         1.2708   -4.8837   -2.3433 H         1 <0>         0.0806
     50 H25        -1.9210   -4.2246    2.8805 H         1 <0>         0.4350
@<TRIPOS>BOND
     1    1    2 1
     2    1   28 1
     3    1   29 1
     4    1   30 1
     5    2    3 2
     6    2    4 am
     7    4    5 1
     8    4   31 1
     9    5    6 1
    10    5   20 1
    11    5   32 1
    12    6    7 1
    13    6   11 1
    14    6    8 1
    15    8    9 1
    16    8   33 1
    17    8   34 1
    18    9   10 1
    19    9   17 1
    20    9   35 1
    21   10   11 1
    22   10   36 1
    23   10   37 1
    24   11   12 1
    25   11   13 1
    26   13   14 2
    27   13   50 1
    28   14   15 1
    29   14   16 1
    30   15   38 1
    31   15   39 1
    32   16   40 1
    33   16   41 1
    34   17   18 2
    35   17   19 1
    36   20   21 2
    37   20   22 am
    38   22   27 1
    39   22   23 1
    40   23   24 1
    41   23   42 1
    42   23   43 1
    43   24   25 1
    44   24   44 1
    45   24   45 1
    46   25   26 1
    47   26   27 1
    48   26   46 1
    49   26   47 1
    50   27   48 1
    51   27   49 1
@<TRIPOS>MOLECULE
CHEMBL292853__1
   50    51     0     0     0
SMALL
USER_CHARGES

@<TRIPOS>ATOM
      1 C1         -2.4389    1.4036   -0.5620 C.3       1 <0>        -0.1762
      2 C2         -2.2651   -0.0915   -0.6371 C.2       1 <0>         0.5159
      3 O1         -2.9963   -0.7523   -1.3439 O.2       1 <0>        -0.5439
      4 N1         -1.2970   -0.6943    0.0813 N.am      1 <0>        -0.7144
      5 C3         -1.1966   -2.1558    0.0939 C.3       1 <0>         0.1335
      6 C4         -0.5322   -2.6101    1.3950 C.3       1 <0>        -0.0967
      7 H1         -0.3866   -3.6903    1.3822 H         1 <0>         0.1041
      8 C5          0.8203   -1.8981    1.5729 C.3       1 <0>        -0.1118
      9 C6          0.7229   -1.0877    2.8820 C.3       1 <0>        -0.1544
     10 C7         -0.3805   -1.8098    3.6944 C.3       1 <0>        -0.1122
     11 C8         -1.4048   -2.2087    2.6022 C.3       1 <0>         0.1106
     12 H2         -2.0409   -1.3609    2.3480 H         1 <0>         0.1129
     13 N2         -2.2159   -3.3441    3.0486 N.pl3     1 <0>        -0.6447
     14 C9         -3.3321   -3.1360    3.6887 C.cat     1 <0>         0.7382
     15 N3         -3.7483   -1.8510    3.9449 N.pl3     1 <0>        -0.8133
     16 N4         -4.0933   -4.2015    4.1076 N.pl3     1 <0>        -0.8180
     17 C10         2.0340   -1.1249    3.6240 C.2       1 <0>         0.4968
     18 O2          2.4495   -0.1215    4.1782 O.co2     1 <0>        -0.6859
     19 O3          2.6792   -2.1584    3.6703 O.co2     1 <0>        -0.6861
     20 C11        -0.3682   -2.6124   -1.0793 C.2       1 <0>         0.5114
     21 O4          0.3821   -1.8355   -1.6309 O.2       1 <0>        -0.5117
     22 N5         -0.4611   -3.8843   -1.5154 N.am      1 <0>        -0.6138
     23 C12        -1.3688   -4.8434   -0.8661 C.3       1 <0>         0.0701
     24 C13        -2.2211   -5.5127   -1.9503 C.3       1 <0>         0.0458
     25 O5         -1.3630   -6.0382   -2.9659 O.3       1 <0>        -0.3752
     26 C14        -0.5938   -5.0479   -3.6524 C.3       1 <0>         0.0474
     27 C15         0.3377   -4.3533   -2.6588 C.3       1 <0>         0.0759
     28 H3         -3.2647    1.7061   -1.2059 H         1 <0>         0.0959
     29 H4         -2.6552    1.6930    0.4664 H         1 <0>         0.0910
     30 H5         -1.5226    1.8929   -0.8921 H         1 <0>         0.0959
     31 H6         -0.6668   -0.1604    0.5900 H         1 <0>         0.4144
     32 H7         -2.1943   -2.5891    0.0248 H         1 <0>         0.1084
     33 H8          1.6221   -2.6327    1.6473 H         1 <0>         0.0984
     34 H9          1.0033   -1.2288    0.7322 H         1 <0>         0.0769
     35 H10         0.4310   -0.0586    2.6727 H         1 <0>         0.0746
     36 H11         0.0203   -2.6946    4.1889 H         1 <0>         0.0909
     37 H12        -0.8324   -1.1324    4.4191 H         1 <0>         0.0776
     38 H13        -3.2112   -1.0992    3.6493 H         1 <0>         0.4374
     39 H14        -4.5790   -1.6961    4.4212 H         1 <0>         0.4355
     40 H15        -3.7996   -5.1081    3.9268 H         1 <0>         0.4366
     41 H16        -4.9239   -4.0466    4.5839 H         1 <0>         0.4362
     42 H17        -0.7875   -5.5989   -0.3375 H         1 <0>         0.0844
     43 H18        -2.0154   -4.3185   -0.1628 H         1 <0>         0.0836
     44 H19        -2.8014   -6.3229   -1.5088 H         1 <0>         0.1070
     45 H20        -2.8959   -4.7773   -2.3886 H         1 <0>         0.0587
     46 H21        -0.0034   -5.5237   -4.4354 H         1 <0>         0.1118
     47 H22        -1.2627   -4.3109   -4.0968 H         1 <0>         0.0575
     48 H23         0.8206   -3.5040   -3.1422 H         1 <0>         0.1045
     49 H24         1.0937   -5.0586   -2.3139 H         1 <0>         0.0816
     50 H25        -1.9223   -4.2508    2.8678 H         1 <0>         0.4366
@<TRIPOS>BOND
     1    1    2 1
     2    1   28 1
     3    1   29 1
     4    1   30 1
     5    2    3 2
     6    2    4 am
     7    4    5 1
     8    4   31 1
     9    5    6 1
    10    5   20 1
    11    5   32 1
    12    6    7 1
    13    6   11 1
    14    6    8 1
    15    8    9 1
    16    8   33 1
    17    8   34 1
    18    9   10 1
    19    9   17 1
    20    9   35 1
    21   10   11 1
    22   10   36 1
    23   10   37 1
    24   11   12 1
    25   11   13 1
    26   13   14 2
    27   13   50 1
    28   14   15 1
    29   14   16 1
    30   15   38 1
    31   15   39 1
    32   16   40 1
    33   16   41 1
    34   17   18 2
    35   17   19 1
    36   20   21 2
    37   20   22 am
    38   22   27 1
    39   22   23 1
    40   23   24 1
    41   23   42 1
    42   23   43 1
    43   24   25 1
    44   24   44 1
    45   24   45 1
    46   25   26 1
    47   26   27 1
    48   26   46 1
    49   26   47 1
    50   27   48 1
    51   27   49 1
@<TRIPOS>MOLECULE
CHEMBL292853__2
   50    51     0     0     0
SMALL
USER_CHARGES

@<TRIPOS>ATOM
      1 C1          0.3250    1.1970   -1.1213 C.3       1 <0>        -0.1748
      2 C2          0.1911   -0.2354   -0.6727 C.2       1 <0>         0.4969
      3 O1          1.1831   -0.9091   -0.4904 O.2       1 <0>        -0.4891
      4 N1         -1.0309   -0.7679   -0.4740 N.am      1 <0>        -0.7304
      5 C3         -1.1611   -2.1605   -0.0379 C.3       1 <0>         0.1343
      6 C4         -0.5207   -3.0824   -1.0775 C.3       1 <0>        -0.1084
      7 H1          0.5511   -2.8954   -1.1432 H         1 <0>         0.1163
      8 C5         -0.7916   -4.5664   -0.7260 C.3       1 <0>        -0.0910
      9 C6         -0.6453   -5.2743   -2.0959 C.3       1 <0>        -0.1562
     10 C7         -1.2696   -4.2850   -3.1016 C.3       1 <0>        -0.1134
     11 C8         -1.1880   -2.8888   -2.4548 C.3       1 <0>         0.1191
     12 H2         -2.1893   -2.4766   -2.3300 H         1 <0>         0.1036
     13 N2         -0.3765   -1.9947   -3.2844 N.pl3     1 <0>        -0.6382
     14 C9         -0.9337   -1.3124   -4.2451 C.cat     1 <0>         0.7329
     15 N3         -2.2830   -1.4318   -4.4799 N.pl3     1 <0>        -0.8140
     16 N4         -0.1721   -0.4734   -5.0236 N.pl3     1 <0>        -0.8214
     17 C10        -1.4017   -6.5777   -2.0995 C.2       1 <0>         0.4969
     18 O2         -1.8745   -7.0053   -3.1388 O.co2     1 <0>        -0.6925
     19 O3         -1.5408   -7.2046   -1.0631 O.co2     1 <0>        -0.6824
     20 C11        -0.4664   -2.3388    1.2875 C.2       1 <0>         0.5064
     21 O4          0.6012   -1.8001    1.4899 O.2       1 <0>        -0.4992
     22 N5         -1.0315   -3.0970    2.2479 N.am      1 <0>        -0.6120
     23 C12        -2.2732   -3.8435    1.9909 C.3       1 <0>         0.0648
     24 C13        -2.0625   -5.2975    2.4282 C.3       1 <0>         0.0428
     25 O5         -1.5753   -5.3190    3.7721 O.3       1 <0>        -0.3764
     26 C14        -0.3039   -4.6883    3.9439 C.3       1 <0>         0.0460
     27 C15        -0.4215   -3.2075    3.5825 C.3       1 <0>         0.0790
     28 H3          1.3806    1.4472   -1.2277 H         1 <0>         0.0952
     29 H4         -0.1775    1.3260   -2.0799 H         1 <0>         0.0772
     30 H5         -0.1312    1.8538   -0.3806 H         1 <0>         0.0899
     31 H6         -1.8243   -0.2292   -0.6197 H         1 <0>         0.4031
     32 H7         -2.2166   -2.4107    0.0686 H         1 <0>         0.1127
     33 H8         -0.0501   -4.9373   -0.0184 H         1 <0>         0.0777
     34 H9         -1.8000   -4.6922   -0.3319 H         1 <0>         0.0806
     35 H10         0.4064   -5.4418   -2.3284 H         1 <0>         0.0751
     36 H11        -0.7063   -4.2957   -4.0346 H         1 <0>         0.0724
     37 H12        -2.3098   -4.5506   -3.2899 H         1 <0>         0.0940
     38 H13        -2.8204   -2.0238   -3.9306 H         1 <0>         0.4376
     39 H14        -2.6977   -0.9241   -5.1948 H         1 <0>         0.4340
     40 H15         0.7800   -0.3892   -4.8579 H         1 <0>         0.4358
     41 H16        -0.5867    0.0344   -5.7385 H         1 <0>         0.4349
     42 H17        -3.0910   -3.4033    2.5617 H         1 <0>         0.0795
     43 H18        -2.5080   -3.8104    0.9270 H         1 <0>         0.0959
     44 H19        -3.0097   -5.8344    2.3757 H         1 <0>         0.1120
     45 H20        -1.3361   -5.7741    1.7700 H         1 <0>         0.0746
     46 H21         0.0141   -4.7869    4.9818 H         1 <0>         0.1069
     47 H22         0.4289   -5.1626    3.2911 H         1 <0>         0.0583
     48 H23         0.5694   -2.7536    3.5720 H         1 <0>         0.1003
     49 H24        -1.0496   -2.7023    4.3162 H         1 <0>         0.0759
     50 H25         0.5756   -1.9105   -3.1187 H         1 <0>         0.4371
@<TRIPOS>BOND
     1    1    2 1
     2    1   28 1
     3    1   29 1
     4    1   30 1
     5    2    3 2
     6    2    4 am
     7    4    5 1
     8    4   31 1
     9    5    6 1
    10    5   20 1
    11    5   32 1
    12    6    7 1
    13    6   11 1
    14    6    8 1
    15    8    9 1
    16    8   33 1
    17    8   34 1
    18    9   10 1
    19    9   17 1
    20    9   35 1
    21   10   11 1
    22   10   36 1
    23   10   37 1
    24   11   12 1
    25   11   13 1
    26   13   14 2
    27   13   50 1
    28   14   15 1
    29   14   16 1
    30   15   38 1
    31   15   39 1
    32   16   40 1
    33   16   41 1
    34   17   18 2
    35   17   19 1
    36   20   21 2
    37   20   22 am
    38   22   27 1
    39   22   23 1
    40   23   24 1
    41   23   42 1
    42   23   43 1
    43   24   25 1
    44   24   44 1
    45   24   45 1
    46   25   26 1
    47   26   27 1
    48   26   46 1
    49   26   47 1
    50   27   48 1
    51   27   49 1
@<TRIPOS>MOLECULE
CHEMBL292853__3
   50    51     0     0     0
SMALL
USER_CHARGES

@<TRIPOS>ATOM
      1 C1          0.3261    1.3297   -0.6175 C.3       1 <0>        -0.1742
      2 C2          0.1940   -0.1528   -0.3813 C.2       1 <0>         0.4936
      3 O1          1.1857   -0.8489   -0.3263 O.2       1 <0>        -0.4837
      4 N1         -1.0262   -0.7052   -0.2312 N.am      1 <0>        -0.7314
      5 C3         -1.1546   -2.1464   -0.0016 C.3       1 <0>         0.1339
      6 C4         -0.5472   -2.9070   -1.1821 C.3       1 <0>        -0.1012
      7 H1          0.5059   -2.6476   -1.2909 H         1 <0>         0.1162
      8 C5         -0.6970   -4.4231   -0.9655 C.3       1 <0>        -0.1129
      9 C6         -1.5480   -4.9537   -2.1376 C.3       1 <0>        -0.1537
     10 C7         -1.3438   -3.9061   -3.2601 C.3       1 <0>        -0.1130
     11 C8         -1.3116   -2.5683   -2.4785 C.3       1 <0>         0.1174
     12 H2         -2.3241   -2.2365   -2.2488 H         1 <0>         0.1075
     13 N2         -0.5959   -1.5438   -3.2430 N.pl3     1 <0>        -0.6367
     14 C9         -1.2464   -0.7748   -4.0703 C.cat     1 <0>         0.7338
     15 N3         -2.6041   -0.9252   -4.2256 N.pl3     1 <0>        -0.8157
     16 N4         -0.5748    0.1866   -4.7877 N.pl3     1 <0>        -0.8207
     17 C10        -1.0506   -6.3054   -2.5810 C.2       1 <0>         0.4957
     18 O2         -1.8459   -7.1775   -2.8867 O.co2     1 <0>        -0.6877
     19 O3          0.1472   -6.5269   -2.6339 O.co2     1 <0>        -0.6849
     20 C11        -0.4275   -2.5201    1.2644 C.2       1 <0>         0.5057
     21 O4          0.6801   -2.0762    1.4812 O.2       1 <0>        -0.4927
     22 N5         -1.0082   -3.3477    2.1557 N.am      1 <0>        -0.6157
     23 C12        -2.2925   -4.0012    1.8577 C.3       1 <0>         0.0649
     24 C13        -2.1467   -5.5021    2.1335 C.3       1 <0>         0.0409
     25 O5         -1.6298   -5.6902    3.4531 O.3       1 <0>        -0.3748
     26 C14        -0.3239   -5.1441    3.6534 C.3       1 <0>         0.0446
     27 C15        -0.3735   -3.6293    3.4531 C.3       1 <0>         0.0791
     28 H3          1.3803    1.5898   -0.7136 H         1 <0>         0.0957
     29 H4         -0.1998    1.6000   -1.5332 H         1 <0>         0.0777
     30 H5         -0.1066    1.8715    0.2235 H         1 <0>         0.0893
     31 H6         -1.8193   -0.1485   -0.2752 H         1 <0>         0.4025
     32 H7         -2.2087   -2.4065    0.0945 H         1 <0>         0.1110
     33 H8          0.2833   -4.8995   -0.9701 H         1 <0>         0.0955
     34 H9         -1.2024   -4.6169   -0.0194 H         1 <0>         0.0690
     35 H10        -2.5987   -5.0075   -1.8525 H         1 <0>         0.0748
     36 H11        -0.3991   -4.0733   -3.7774 H         1 <0>         0.0886
     37 H12        -2.1780   -3.9239   -3.9615 H         1 <0>         0.0761
     38 H13        -3.0780   -1.6035   -3.7194 H         1 <0>         0.4368
     39 H14        -3.0882   -0.3529   -4.8413 H         1 <0>         0.4341
     40 H15         0.3832    0.2927   -4.6781 H         1 <0>         0.4363
     41 H16        -1.0588    0.7589   -5.4034 H         1 <0>         0.4350
     42 H17        -3.0728   -3.5850    2.4948 H         1 <0>         0.0820
     43 H18        -2.5502   -3.8438    0.8103 H         1 <0>         0.0956
     44 H19        -3.1213   -5.9835    2.0522 H         1 <0>         0.1123
     45 H20        -1.4615   -5.9407    1.4081 H         1 <0>         0.0675
     46 H21         0.0130   -5.3679    4.6656 H         1 <0>         0.1089
     47 H22         0.3680   -5.5814    2.9336 H         1 <0>         0.0605
     48 H23         0.6389   -3.2256    3.4618 H         1 <0>         0.1018
     49 H24        -0.9573   -3.1749    4.2537 H         1 <0>         0.0763
     50 H25         0.3620   -1.4377   -3.1334 H         1 <0>         0.4382
@<TRIPOS>BOND
     1    1    2 1
     2    1   28 1
     3    1   29 1
     4    1   30 1
     5    2    3 2
     6    2    4 am
     7    4    5 1
     8    4   31 1
     9    5    6 1
    10    5   20 1
    11    5   32 1
    12    6    7 1
    13    6   11 1
    14    6    8 1
    15    8    9 1
    16    8   33 1
    17    8   34 1
    18    9   10 1
    19    9   17 1
    20    9   35 1
    21   10   11 1
    22   10   36 1
    23   10   37 1
    24   11   12 1
    25   11   13 1
    26   13   14 2
    27   13   50 1
    28   14   15 1
    29   14   16 1
    30   15   38 1
    31   15   39 1
    32   16   40 1
    33   16   41 1
    34   17   18 2
    35   17   19 1
    36   20   21 2
    37   20   22 am
    38   22   27 1
    39   22   23 1
    40   23   24 1
    41   23   42 1
    42   23   43 1
    43   24   25 1
    44   24   44 1
    45   24   45 1
    46   25   26 1
    47   26   27 1
    48   26   46 1
    49   26   47 1
    50   27   48 1
    51   27   49 1
@<TRIPOS>MOLECULE
CHEMBL310217
   42    43     0     0     0
SMALL
USER_CHARGES

@<TRIPOS>ATOM
      1 C1         -0.0184    1.5028    0.0103 C.3       1 <0>        -0.1756
      2 C2          0.0021   -0.0041    0.0020 C.2       1 <0>         0.5073
      3 O1          1.0605   -0.5961   -0.0113 O.2       1 <0>        -0.4886
      4 N1         -1.1558   -0.6938    0.0094 N.am      1 <0>        -0.7556
      5 C3         -1.1360   -2.1586    0.0013 C.3       1 <0>         0.1303
      6 H1         -0.2957   -2.5101   -0.5975 H         1 <0>         0.1260
      7 C4         -2.4478   -2.6884   -0.5906 C.3       1 <0>         0.0219
      8 H2         -3.2717   -2.4658    0.0874 H         1 <0>         0.1506
      9 C5         -2.3238   -4.2030   -0.7689 C.3       1 <0>        -0.0814
     10 C6         -1.8244   -4.8332    0.4985 C.2       1 <0>        -0.1578
     11 C7         -1.2384   -4.1610    1.4693 C.2       1 <0>        -0.1612
     12 C8         -0.9994   -2.6787    1.4338 C.3       1 <0>         0.1196
     13 H3         -1.7318   -2.1818    2.0700 H         1 <0>         0.0751
     14 O2          0.3148   -2.3946    1.9177 O.3       1 <0>        -0.3438
     15 C9          0.3825   -2.1905    3.3304 C.3       1 <0>         0.1025
     16 C10         1.8067   -1.8999    3.7283 C.ar      1 <0>        -0.0897
     17 C11         2.6557   -2.9375    4.0650 C.ar      1 <0>        -0.0942
     18 C12         3.9621   -2.6710    4.4300 C.ar      1 <0>        -0.1219
     19 C13         4.4196   -1.3668    4.4577 C.ar      1 <0>        -0.1124
     20 C14         3.5709   -0.3293    4.1201 C.ar      1 <0>        -0.1256
     21 C15         2.2657   -0.5962    3.7510 C.ar      1 <0>        -0.0943
     22 C16        -1.9988   -6.2801    0.6667 C.2       1 <0>         0.5110
     23 O3         -1.6044   -6.8294    1.6866 O.co2     1 <0>        -0.6715
     24 O4         -2.5387   -6.9376   -0.2129 O.co2     1 <0>        -0.6866
     25 N2         -2.6941   -2.0529   -1.8919 N.4       1 <0>        -0.6302
     26 H4          1.0042    1.8801    0.0026 H         1 <0>         0.0978
     27 H5         -0.5455    1.8639   -0.8728 H         1 <0>         0.0873
     28 H6         -0.5286    1.8543    0.9071 H         1 <0>         0.0903
     29 H7         -2.0023   -0.2203    0.0200 H         1 <0>         0.3954
     30 H8         -3.2999   -4.6185   -1.0189 H         1 <0>         0.1115
     31 H9         -1.6249   -4.4155   -1.5779 H         1 <0>         0.0963
     32 H10        -0.9078   -4.7081    2.3398 H         1 <0>         0.1358
     33 H11        -0.2511   -1.3477    3.6065 H         1 <0>         0.0532
     34 H12         0.0377   -3.0879    3.8441 H         1 <0>         0.0647
     35 H13         2.2983   -3.9564    4.0433 H         1 <0>         0.1260
     36 H14         4.6252   -3.4816    4.6938 H         1 <0>         0.1250
     37 H15         5.4401   -1.1585    4.7436 H         1 <0>         0.1227
     38 H16         3.9282    0.6897    4.1421 H         1 <0>         0.1218
     39 H17         1.6037    0.2141    3.4836 H         1 <0>         0.1154
     40 H18        -1.9333   -2.2657   -2.5196 H         1 <0>         0.4356
     41 H19        -3.5576   -2.4031   -2.2792 H         1 <0>         0.4404
     42 H20        -2.7607   -1.0534   -1.7709 H         1 <0>         0.4267
@<TRIPOS>BOND
     1    1    2 1
     2    1   26 1
     3    1   27 1
     4    1   28 1
     5    2    3 2
     6    2    4 am
     7    4    5 1
     8    4   29 1
     9    5    6 1
    10    5   12 1
    11    5    7 1
    12    7    8 1
    13    7    9 1
    14    7   25 1
    15    9   10 1
    16    9   30 1
    17    9   31 1
    18   10   11 2
    19   10   22 1
    20   11   12 1
    21   11   32 1
    22   12   13 1
    23   12   14 1
    24   14   15 1
    25   15   16 1
    26   15   33 1
    27   15   34 1
    28   16   21 ar
    29   16   17 ar
    30   17   18 ar
    31   17   35 1
    32   18   19 ar
    33   18   36 1
    34   19   20 ar
    35   19   37 1
    36   20   21 ar
    37   20   38 1
    38   21   39 1
    39   22   23 2
    40   22   24 1
    41   25   40 1
    42   25   41 1
    43   25   42 1
@<TRIPOS>MOLECULE
CHEMBL278874
   43    43     0     0     0
SMALL
USER_CHARGES

@<TRIPOS>ATOM
      1 C1         -0.0184    1.5028    0.0103 C.3       1 <0>        -0.1767
      2 C2          0.0021   -0.0041    0.0020 C.2       1 <0>         0.5229
      3 O1          1.0605   -0.5961   -0.0113 O.2       1 <0>        -0.5549
      4 N1         -1.1558   -0.6938    0.0094 N.am      1 <0>        -0.6989
      5 C3         -1.1360   -2.1586    0.0013 C.3       1 <0>         0.1191
      6 H1         -0.2849   -2.5178    0.5799 H         1 <0>         0.1114
      7 C4         -1.0315   -2.6660   -1.4408 C.3       1 <0>         0.1655
      8 H2         -0.2439   -2.1214   -1.9615 H         1 <0>         0.1070
      9 C5         -2.3429   -2.4470   -2.1452 C.2       1 <0>        -0.3336
     10 C6         -3.4710   -2.2187   -1.4864 C.2       1 <0>         0.1102
     11 O2         -3.5366   -2.1571   -0.1340 O.3       1 <0>        -0.2790
     12 C7         -2.4386   -2.6972    0.6082 C.3       1 <0>         0.0389
     13 C8         -2.5422   -2.2657    2.0725 C.3       1 <0>         0.0977
     14 H3         -1.7432   -2.7346    2.6468 H         1 <0>         0.1172
     15 C9         -3.8972   -2.6976    2.6368 C.3       1 <0>         0.0773
     16 H4         -4.6961   -2.2287    2.0624 H         1 <0>         0.1254
     17 C10        -4.0008   -2.2662    4.1010 C.3       1 <0>         0.0487
     18 O3         -5.3082   -2.5651    4.5943 O.3       1 <0>        -0.5616
     19 O4         -4.0184   -4.1188    2.5492 O.3       1 <0>        -0.5385
     20 O5         -2.4209   -0.8445    2.1600 O.3       1 <0>        -0.5427
     21 C11        -4.7079   -2.0237   -2.2588 C.2       1 <0>         0.5235
     22 O6         -4.6803   -2.0740   -3.4810 O.co2     1 <0>        -0.6569
     23 O7         -5.7642   -1.8113   -1.6790 O.co2     1 <0>        -0.6449
     24 N2         -0.7138   -4.0961   -1.4335 N.pl3     1 <0>        -0.6808
     25 C12        -0.0814   -4.6617   -2.5065 C.cat     1 <0>         0.7466
     26 N3          0.2074   -5.9619   -2.4999 N.pl3     1 <0>        -0.8006
     27 N4          0.2454   -3.9122   -3.5580 N.pl3     1 <0>        -0.7910
     28 H5          1.0042    1.8801    0.0026 H         1 <0>         0.0939
     29 H6         -0.5455    1.8639   -0.8728 H         1 <0>         0.0922
     30 H7         -0.5286    1.8543    0.9071 H         1 <0>         0.0946
     31 H8         -2.0023   -0.2203    0.0200 H         1 <0>         0.4118
     32 H9         -2.3662   -2.4764   -3.2246 H         1 <0>         0.1427
     33 H10        -2.4516   -3.7852    0.5436 H         1 <0>         0.0919
     34 H11        -3.2582   -2.8029    4.6914 H         1 <0>         0.0452
     35 H12        -3.8199   -1.1940    4.1775 H         1 <0>         0.0644
     36 H13        -5.4457   -2.3178    5.5190 H         1 <0>         0.3807
     37 H14        -3.3385   -4.6024    3.0380 H         1 <0>         0.3664
     38 H15        -3.1009   -0.3609    1.6712 H         1 <0>         0.3862
     39 H16        -0.9518   -4.6420   -0.6678 H         1 <0>         0.4261
     40 H17        -0.0306   -6.5078   -1.7342 H         1 <0>         0.4377
     41 H18         0.0350   -2.9653   -3.5628 H         1 <0>         0.4409
     42 H19         0.6938   -4.3132   -4.3189 H         1 <0>         0.4364
     43 H20         0.6559   -6.3630   -3.2609 H         1 <0>         0.4372
@<TRIPOS>BOND
     1    1    2 1
     2    1   28 1
     3    1   29 1
     4    1   30 1
     5    2    3 2
     6    2    4 am
     7    4    5 1
     8    4   31 1
     9    5    6 1
    10    5   12 1
    11    5    7 1
    12    7    8 1
    13    7    9 1
    14    7   24 1
    15    9   10 2
    16    9   32 1
    17   10   11 1
    18   10   21 1
    19   11   12 1
    20   12   13 1
    21   12   33 1
    22   13   14 1
    23   13   15 1
    24   13   20 1
    25   15   16 1
    26   15   17 1
    27   15   19 1
    28   17   18 1
    29   17   34 1
    30   17   35 1
    31   18   36 1
    32   19   37 1
    33   20   38 1
    34   21   22 2
    35   21   23 1
    36   24   25 1
    37   24   39 1
    38   25   26 2
    39   25   27 1
    40   26   40 1
    41   26   43 1
    42   27   41 1
    43   27   42 1
@<TRIPOS>MOLECULE
CHEMBL278874__1
   43    43     0     0     0
SMALL
USER_CHARGES

@<TRIPOS>ATOM
      1 C1         -0.0184    1.5028    0.0103 C.3       1 <0>        -0.1756
      2 C2          0.0021   -0.0041    0.0020 C.2       1 <0>         0.5222
      3 O1          1.0605   -0.5961   -0.0113 O.2       1 <0>        -0.5570
      4 N1         -1.1558   -0.6938    0.0094 N.am      1 <0>        -0.7082
      5 C3         -1.1360   -2.1586    0.0013 C.3       1 <0>         0.1088
      6 H1         -0.2849   -2.5178    0.5799 H         1 <0>         0.1142
      7 C4         -1.0315   -2.6660   -1.4408 C.3       1 <0>         0.1761
      8 H2         -1.7482   -2.1337   -2.0661 H         1 <0>         0.0937
      9 C5         -1.3322   -4.1399   -1.4764 C.2       1 <0>        -0.3481
     10 C6         -1.9539   -4.7598   -0.4824 C.2       1 <0>         0.1101
     11 O2         -2.3610   -4.1251    0.6438 O.3       1 <0>        -0.2538
     12 C7         -2.4386   -2.6972    0.6082 C.3       1 <0>         0.0552
     13 C8         -2.6090   -2.1539    2.0283 C.3       1 <0>         0.0896
     14 H3         -1.7660   -2.4712    2.6423 H         1 <0>         0.1168
     15 C9         -3.9087   -2.6938    2.6284 C.3       1 <0>         0.0820
     16 H4         -4.7516   -2.3766    2.0145 H         1 <0>         0.1033
     17 C10        -4.0791   -2.1506    4.0485 C.3       1 <0>         0.0471
     18 O3         -5.3468   -2.5595    4.5661 O.3       1 <0>        -0.5623
     19 O4         -3.8585   -4.1214    2.6673 O.3       1 <0>        -0.5140
     20 O5         -2.6592   -0.7264    1.9894 O.3       1 <0>        -0.5379
     21 C11        -2.2130   -6.2027   -0.6077 C.2       1 <0>         0.5244
     22 O6         -1.8569   -6.8032   -1.6125 O.co2     1 <0>        -0.6616
     23 O7         -2.7846   -6.8021    0.2929 O.co2     1 <0>        -0.6385
     24 N2          0.3243   -2.4318   -1.9440 N.pl3     1 <0>        -0.6674
     25 C12         0.5432   -2.3102   -3.2887 C.cat     1 <0>         0.7398
     26 N3          1.7758   -2.0972   -3.7462 N.pl3     1 <0>        -0.7999
     27 N4         -0.4763   -2.4047   -4.1407 N.pl3     1 <0>        -0.7970
     28 H5          1.0042    1.8801    0.0026 H         1 <0>         0.0941
     29 H6         -0.5455    1.8639   -0.8728 H         1 <0>         0.0871
     30 H7         -0.5286    1.8543    0.9071 H         1 <0>         0.0961
     31 H8         -2.0023   -0.2203    0.0200 H         1 <0>         0.4059
     32 H9         -1.0311   -4.7127   -2.3410 H         1 <0>         0.1445
     33 H10        -3.2846   -2.3906   -0.0068 H         1 <0>         0.0819
     34 H11        -3.2842   -2.5403    4.6844 H         1 <0>         0.0484
     35 H12        -4.0284   -1.0619    4.0296 H         1 <0>         0.0588
     36 H13        -5.5229   -2.2500    5.4651 H         1 <0>         0.3801
     37 H14        -3.1310   -4.4751    3.1973 H         1 <0>         0.3774
     38 H15        -3.3867   -0.3727    1.4595 H         1 <0>         0.3749
     39 H16         1.0667   -2.3629   -1.3235 H         1 <0>         0.4395
     40 H17         2.5183   -2.0283   -3.1258 H         1 <0>         0.4390
     41 H18        -1.3740   -2.5598   -3.8075 H         1 <0>         0.4396
     42 H19        -0.3210   -2.3185   -5.0943 H         1 <0>         0.4350
     43 H20         1.9311   -2.0109   -4.6998 H         1 <0>         0.4356
@<TRIPOS>BOND
     1    1    2 1
     2    1   28 1
     3    1   29 1
     4    1   30 1
     5    2    3 2
     6    2    4 am
     7    4    5 1
     8    4   31 1
     9    5    6 1
    10    5   12 1
    11    5    7 1
    12    7    8 1
    13    7    9 1
    14    7   24 1
    15    9   10 2
    16    9   32 1
    17   10   11 1
    18   10   21 1
    19   11   12 1
    20   12   13 1
    21   12   33 1
    22   13   14 1
    23   13   15 1
    24   13   20 1
    25   15   16 1
    26   15   17 1
    27   15   19 1
    28   17   18 1
    29   17   34 1
    30   17   35 1
    31   18   36 1
    32   19   37 1
    33   20   38 1
    34   21   22 2
    35   21   23 1
    36   24   25 1
    37   24   39 1
    38   25   26 2
    39   25   27 1
    40   26   40 1
    41   26   43 1
    42   27   41 1
    43   27   42 1
@<TRIPOS>MOLECULE
CHEMBL23009
   43    44     0     0     0
SMALL
USER_CHARGES

@<TRIPOS>ATOM
      1 C1         -0.1056    1.5505    0.0011 C.3       1 <0>        -0.1771
      2 C2         -0.0549    0.0444   -0.0072 C.2       1 <0>         0.5032
      3 O1          1.0152   -0.5262   -0.0245 O.2       1 <0>        -0.4948
      4 N1         -1.1986   -0.6685    0.0045 N.am      1 <0>        -0.7530
      5 C3         -1.1493   -2.1327   -0.0036 C.3       1 <0>         0.1304
      6 H1         -0.2886   -2.4732    0.5721 H         1 <0>         0.1195
      7 C4         -1.0352   -2.6364   -1.4476 C.3       1 <0>         0.0925
      8 H2         -1.9614   -2.4270   -1.9827 H         1 <0>         0.0440
      9 C5         -0.7889   -4.1462   -1.4176 C.3       1 <0>        -0.0841
     10 C6         -1.7900   -4.8152   -0.5213 C.2       1 <0>        -0.0659
     11 C7         -2.5140   -4.1746    0.3749 C.2       1 <0>        -0.2419
     12 C8         -2.4333   -2.6936    0.6111 C.3       1 <0>         0.0722
     13 H3         -3.2952   -2.2095    0.1518 H         1 <0>         0.1364
     14 N2         -2.4396   -2.4252    2.0553 N.4       1 <0>        -0.3722
     15 C9         -1.3571   -3.1811    2.6967 C.3       1 <0>        -0.0156
     16 C10        -1.3077   -2.8427    4.1882 C.3       1 <0>        -0.1395
     17 C11        -2.6450   -3.2148    4.8349 C.3       1 <0>        -0.1391
     18 C12        -3.7744   -2.4774    4.1096 C.3       1 <0>        -0.1405
     19 C13        -3.7323   -2.8293    2.6210 C.3       1 <0>        -0.0122
     20 C14        -1.9736   -6.2649   -0.6505 C.2       1 <0>         0.5028
     21 O2         -2.7808   -6.8454    0.0630 O.co2     1 <0>        -0.6768
     22 O3         -1.3196   -6.8937   -1.4718 O.co2     1 <0>        -0.6634
     23 N3          0.0851   -1.9629   -2.1180 N.3       1 <0>        -0.8273
     24 H4          0.9091    1.9483   -0.0105 H         1 <0>         0.0985
     25 H5         -0.6433    1.9008   -0.8800 H         1 <0>         0.0906
     26 H6         -0.6195    1.8918    0.8997 H         1 <0>         0.0878
     27 H7         -2.0545   -0.2121    0.0183 H         1 <0>         0.3988
     28 H8         -0.8822   -4.5476   -2.4266 H         1 <0>         0.0968
     29 H9          0.2167   -4.3409   -1.0449 H         1 <0>         0.0989
     30 H10        -3.2031   -4.7482    0.9770 H         1 <0>         0.1443
     31 H11        -1.5371   -4.2489    2.5726 H         1 <0>         0.1400
     32 H12        -0.4064   -2.9176    2.2331 H         1 <0>         0.1263
     33 H13        -0.5045   -3.4063    4.6629 H         1 <0>         0.1098
     34 H14        -1.1274   -1.7750    4.3134 H         1 <0>         0.0809
     35 H15        -2.8018   -4.2905    4.7550 H         1 <0>         0.0853
     36 H16        -2.6354   -2.9238    5.8853 H         1 <0>         0.0899
     37 H17        -4.7343   -2.7799    4.5281 H         1 <0>         0.1097
     38 H18        -3.6452   -1.4022    4.2332 H         1 <0>         0.0817
     39 H19        -4.5352   -2.3061    2.1016 H         1 <0>         0.1266
     40 H20        -3.8617   -3.9046    2.4985 H         1 <0>         0.1379
     41 H21         0.1791   -2.2797   -3.0714 H         1 <0>         0.3506
     42 H22        -0.0200   -0.9602   -2.0788 H         1 <0>         0.3365
     43 H23        -2.2979   -1.4388    2.2136 H         1 <0>         0.4112
@<TRIPOS>BOND
     1    1    2 1
     2    1   24 1
     3    1   25 1
     4    1   26 1
     5    2    3 2
     6    2    4 am
     7    4    5 1
     8    4   27 1
     9    5    6 1
    10    5   12 1
    11    5    7 1
    12    7    8 1
    13    7    9 1
    14    7   23 1
    15    9   10 1
    16    9   28 1
    17    9   29 1
    18   10   11 2
    19   10   20 1
    20   11   12 1
    21   11   30 1
    22   12   13 1
    23   12   14 1
    24   14   19 1
    25   14   15 1
    26   14   43 1
    27   15   16 1
    28   15   31 1
    29   15   32 1
    30   16   17 1
    31   16   33 1
    32   16   34 1
    33   17   18 1
    34   17   35 1
    35   17   36 1
    36   18   19 1
    37   18   37 1
    38   18   38 1
    39   19   39 1
    40   19   40 1
    41   20   21 2
    42   20   22 1
    43   23   41 1
    44   23   42 1
@<TRIPOS>MOLECULE
CHEMBL23009__1
   43    44     0     0     0
SMALL
USER_CHARGES

@<TRIPOS>ATOM
      1 C1         -0.0750    1.5340    0.0043 C.3       1 <0>        -0.1811
      2 C2         -0.0349    0.0276   -0.0040 C.2       1 <0>         0.5061
      3 O1          1.0312   -0.5506   -0.0199 O.2       1 <0>        -0.5568
      4 N1         -1.1836   -0.6772    0.0062 N.am      1 <0>        -0.7209
      5 C3         -1.1446   -2.1417   -0.0019 C.3       1 <0>         0.1310
      6 H1         -0.2871   -2.4883    0.5749 H         1 <0>         0.1206
      7 C4         -1.0321   -2.6462   -1.4458 C.3       1 <0>         0.0142
      8 H2         -1.9561   -2.4302   -1.9821 H         1 <0>         0.1450
      9 C5         -0.7965   -4.1577   -1.4155 C.3       1 <0>        -0.0828
     10 C6         -1.8035   -4.8196   -0.5206 C.2       1 <0>        -0.1502
     11 C7         -2.5241   -4.1740    0.3747 C.2       1 <0>        -0.1771
     12 C8         -2.4333   -2.6936    0.6111 C.3       1 <0>         0.1162
     13 H3         -3.2912   -2.2035    0.1507 H         1 <0>         0.1015
     14 N2         -2.4396   -2.4252    2.0553 N.3       1 <0>        -0.5201
     15 C9         -1.3853   -3.1871    2.7368 C.3       1 <0>         0.0469
     16 C10        -1.3266   -2.7745    4.2093 C.3       1 <0>        -0.1133
     17 C11        -2.6834   -3.0461    4.8649 C.3       1 <0>        -0.1255
     18 C12        -3.7704   -2.2792    4.1067 C.3       1 <0>        -0.1135
     19 C13        -3.7583   -2.7061    2.6371 C.3       1 <0>         0.0501
     20 C14        -1.9971   -6.2680   -0.6500 C.2       1 <0>         0.5093
     21 O2         -2.8093   -6.8429    0.0624 O.co2     1 <0>        -0.6736
     22 O3         -1.3465   -6.9014   -1.4705 O.co2     1 <0>        -0.6849
     23 N3          0.0938   -1.9806   -2.1147 N.4       1 <0>        -0.6276
     24 H4          0.9425    1.9246   -0.0060 H         1 <0>         0.1002
     25 H5         -0.6090    1.8881   -0.8775 H         1 <0>         0.0941
     26 H6         -0.5876    1.8789    0.9023 H         1 <0>         0.0999
     27 H7         -2.0362   -0.2149    0.0188 H         1 <0>         0.4164
     28 H8         -0.8913   -4.5585   -2.4247 H         1 <0>         0.1091
     29 H9          0.2072   -4.3595   -1.0415 H         1 <0>         0.0939
     30 H10        -3.2180   -4.7427    0.9759 H         1 <0>         0.1358
     31 H11        -1.6041   -4.2526    2.6666 H         1 <0>         0.0515
     32 H12        -0.4251   -2.9817    2.2635 H         1 <0>         0.0680
     33 H13        -0.5545   -3.3514    4.7184 H         1 <0>         0.0676
     34 H14        -1.0942   -1.7120    4.2806 H         1 <0>         0.0664
     35 H15        -2.8983   -4.1141    4.8284 H         1 <0>         0.0635
     36 H16        -2.6596   -2.7136    5.9027 H         1 <0>         0.0649
     37 H17        -4.7443   -2.5023    4.5424 H         1 <0>         0.0694
     38 H18        -3.5764   -1.2089    4.1763 H         1 <0>         0.0681
     39 H19        -4.5216   -2.1515    2.0914 H         1 <0>         0.0757
     40 H20        -3.9659   -3.7739    2.5674 H         1 <0>         0.0483
     41 H21         0.9486   -2.1872   -1.6201 H         1 <0>         0.4386
     42 H22         0.1656   -2.3142   -3.0643 H         1 <0>         0.4337
     43 H23        -0.0596   -0.9834   -2.1192 H         1 <0>         0.4213
@<TRIPOS>BOND
     1    1    2 1
     2    1   24 1
     3    1   25 1
     4    1   26 1
     5    2    3 2
     6    2    4 am
     7    4    5 1
     8    4   27 1
     9    5    6 1
    10    5   12 1
    11    5    7 1
    12    7    8 1
    13    7    9 1
    14    7   23 1
    15    9   10 1
    16    9   28 1
    17    9   29 1
    18   10   11 2
    19   10   20 1
    20   11   12 1
    21   11   30 1
    22   12   13 1
    23   12   14 1
    24   14   19 1
    25   14   15 1
    26   15   16 1
    27   15   31 1
    28   15   32 1
    29   16   17 1
    30   16   33 1
    31   16   34 1
    32   17   18 1
    33   17   35 1
    34   17   36 1
    35   18   19 1
    36   18   37 1
    37   18   38 1
    38   19   39 1
    39   19   40 1
    40   20   21 2
    41   20   22 1
    42   23   41 1
    43   23   42 1
    44   23   43 1
@<TRIPOS>MOLECULE
CHEMBL348066
   54    55     0     0     0
SMALL
USER_CHARGES

@<TRIPOS>ATOM
      1 C1         -0.8826    1.8828    0.2993 C.3       1 <0>        -0.1329
      2 C2         -0.7087    0.3685    0.4319 C.3       1 <0>        -0.1323
      3 C3         -2.0515   -0.3224    0.1860 C.3       1 <0>         0.1067
      4 N1         -1.9142   -1.7595    0.4358 N.am      1 <0>        -0.5932
      5 C4         -2.0857   -2.2869    1.7918 C.3       1 <0>         0.1205
      6 C5         -3.5553   -2.6482    2.0165 C.3       1 <0>        -0.0965
      7 C6         -3.7317   -3.1907    3.4113 C.ar      1 <0>        -0.0758
      8 C7         -3.5966   -4.5460    3.6480 C.ar      1 <0>        -0.1122
      9 C8         -3.7583   -5.0436    4.9275 C.ar      1 <0>        -0.1191
     10 C9         -4.0548   -4.1860    5.9703 C.ar      1 <0>        -0.1262
     11 C10        -4.1890   -2.8307    5.7338 C.ar      1 <0>        -0.1196
     12 C11        -4.0230   -2.3325    4.4551 C.ar      1 <0>        -0.1154
     13 C12        -1.6302   -2.5962   -0.5818 C.2       1 <0>         0.5368
     14 O1         -1.4557   -3.7768   -0.3655 O.2       1 <0>        -0.5347
     15 C13        -1.5294   -2.0650   -1.9884 C.3       1 <0>         0.0532
     16 H1         -0.9609   -2.7618   -2.6043 H         1 <0>         0.1053
     17 C14        -2.9360   -1.8850   -2.5753 C.3       1 <0>         0.1215
     18 H2         -3.4832   -1.1406   -1.9969 H         1 <0>         0.1241
     19 C15        -2.7940   -1.4105   -4.0253 C.3       1 <0>         0.1297
     20 H3         -2.4500   -2.2376   -4.6463 H         1 <0>         0.0442
     21 C16        -1.7960   -0.2863   -4.0892 C.2       1 <0>        -0.2507
     22 C17        -0.9319   -0.0503   -3.1112 C.2       1 <0>         0.0362
     23 O2         -0.8796   -0.7909   -1.9771 O.3       1 <0>        -0.2678
     24 C18         0.0139    1.0663   -3.2644 C.2       1 <0>         0.5364
     25 O3         -0.0087    1.7526   -4.2770 O.co2     1 <0>        -0.6673
     26 O4          0.8230    1.3085   -2.3790 O.co2     1 <0>        -0.6560
     27 N2         -4.0957   -0.9383   -4.5158 N.3       1 <0>        -0.8270
     28 N3         -3.6529   -3.1622   -2.5406 N.am      1 <0>        -0.6954
     29 C19        -4.9951   -3.1785   -2.4189 C.2       1 <0>         0.4795
     30 O5         -5.6177   -2.1377   -2.4301 O.2       1 <0>        -0.4530
     31 C20        -5.7222   -4.4899   -2.2691 C.3       1 <0>         0.4502
     32 F1         -7.1024   -4.2613   -2.2752 F         1 <0>        -0.1528
     33 F2         -5.3847   -5.3344   -3.3321 F         1 <0>        -0.1692
     34 F3         -5.3546   -5.0915   -1.0607 F         1 <0>        -0.1629
     35 H4          0.0535    2.3797    0.5543 H         1 <0>         0.0547
     36 H5         -1.1567    2.1286   -0.7266 H         1 <0>         0.0619
     37 H6         -1.6684    2.2190    0.9758 H         1 <0>         0.0356
     38 H7          0.0186    0.0207   -0.3016 H         1 <0>         0.1004
     39 H8         -0.3556    0.1298    1.4351 H         1 <0>         0.0463
     40 H9         -2.8024    0.0931    0.8581 H         1 <0>         0.0671
     41 H10        -2.3594   -0.1610   -0.8470 H         1 <0>         0.0923
     42 H11        -1.4695   -3.1774    1.9159 H         1 <0>         0.0863
     43 H12        -1.7824   -1.5314    2.5166 H         1 <0>         0.0815
     44 H13        -4.1715   -1.7577    1.8924 H         1 <0>         0.0746
     45 H14        -3.8586   -3.4037    1.2917 H         1 <0>         0.0744
     46 H15        -3.3650   -5.2160    2.8332 H         1 <0>         0.1226
     47 H16        -3.6535   -6.1025    5.1123 H         1 <0>         0.1204
     48 H17        -4.1818   -4.5750    6.9698 H         1 <0>         0.1190
     49 H18        -4.4209   -2.1607    6.5485 H         1 <0>         0.1205
     50 H19        -4.1242   -1.2731    4.2709 H         1 <0>         0.1218
     51 H20        -1.7827    0.3502   -4.9616 H         1 <0>         0.1406
     52 H21        -4.0284   -0.6197   -5.4708 H         1 <0>         0.3460
     53 H22        -4.7991   -1.6557   -4.4227 H         1 <0>         0.3362
     54 H23        -3.1616   -3.9961   -2.6051 H         1 <0>         0.4135
@<TRIPOS>BOND
     1    1    2 1
     2    1   35 1
     3    1   36 1
     4    1   37 1
     5    2    3 1
     6    2   38 1
     7    2   39 1
     8    3    4 1
     9    3   40 1
    10    3   41 1
    11    4    5 1
    12    4   13 am
    13    5    6 1
    14    5   42 1
    15    5   43 1
    16    6    7 1
    17    6   44 1
    18    6   45 1
    19    7   12 ar
    20    7    8 ar
    21    8    9 ar
    22    8   46 1
    23    9   10 ar
    24    9   47 1
    25   10   11 ar
    26   10   48 1
    27   11   12 ar
    28   11   49 1
    29   12   50 1
    30   13   14 2
    31   13   15 1
    32   15   16 1
    33   15   23 1
    34   15   17 1
    35   17   18 1
    36   17   19 1
    37   17   28 1
    38   19   20 1
    39   19   21 1
    40   19   27 1
    41   21   22 2
    42   21   51 1
    43   22   23 1
    44   22   24 1
    45   24   25 2
    46   24   26 1
    47   27   52 1
    48   27   53 1
    49   28   29 am
    50   28   54 1
    51   29   30 2
    52   29   31 1
    53   31   32 1
    54   31   33 1
    55   31   34 1
@<TRIPOS>MOLECULE
CHEMBL348066__1
   55    56     0     0     0
SMALL
USER_CHARGES

@<TRIPOS>ATOM
      1 C1          0.7874    1.8938   -0.9950 C.3       1 <0>        -0.1541
      2 C2          0.4702    0.4399   -0.6394 C.3       1 <0>        -0.1428
      3 C3         -1.0462    0.2549   -0.5539 C.3       1 <0>         0.0937
      4 N1         -1.3475   -1.1068   -0.1052 N.am      1 <0>        -0.6022
      5 C4         -1.4967   -1.3908    1.3242 C.3       1 <0>         0.1231
      6 C5         -2.9603   -1.2074    1.7306 C.3       1 <0>        -0.0970
      7 C6         -3.1138   -1.4996    3.2010 C.ar      1 <0>        -0.0831
      8 C7         -3.3925   -2.7855    3.6247 C.ar      1 <0>        -0.1116
      9 C8         -3.5333   -3.0535    4.9735 C.ar      1 <0>        -0.1170
     10 C9         -3.3949   -2.0357    5.8986 C.ar      1 <0>        -0.1218
     11 C10        -3.1152   -0.7500    5.4749 C.ar      1 <0>        -0.1193
     12 C11        -2.9702   -0.4828    4.1264 C.ar      1 <0>        -0.1163
     13 C12        -1.4875   -2.0981   -1.0075 C.2       1 <0>         0.5236
     14 O1         -1.6667   -3.2378   -0.6333 O.2       1 <0>        -0.4893
     15 C13        -1.4212   -1.7905   -2.4813 C.3       1 <0>         0.0533
     16 H1         -1.2823   -0.7193   -2.6270 H         1 <0>         0.1079
     17 C14        -0.2520   -2.5548   -3.1170 C.3       1 <0>         0.0927
     18 H2         -0.4221   -3.6277   -3.0274 H         1 <0>         0.1489
     19 C15        -0.1726   -2.1661   -4.5971 C.3       1 <0>         0.0881
     20 H3          0.2134   -1.1506   -4.6859 H         1 <0>         0.1486
     21 C16        -1.5459   -2.2359   -5.2078 C.2       1 <0>        -0.3699
     22 C17        -2.6486   -2.2498   -4.4710 C.2       1 <0>         0.1409
     23 O2         -2.6322   -2.2103   -3.1162 O.3       1 <0>        -0.2537
     24 C18        -3.9495   -2.3105   -5.1555 C.2       1 <0>         0.5229
     25 O3         -3.9967   -2.3469   -6.3776 O.co2     1 <0>        -0.6459
     26 O4         -4.9843   -2.3247   -4.5026 O.co2     1 <0>        -0.6319
     27 N2          0.7237   -3.0939   -5.2997 N.4       1 <0>        -0.6276
     28 N3          0.9981   -2.1950   -2.4431 N.am      1 <0>        -0.7213
     29 C19         1.5727   -3.0588   -1.5829 C.2       1 <0>         0.4806
     30 O5          1.1007   -4.1653   -1.4286 O.2       1 <0>        -0.4282
     31 C20         2.8019   -2.6498   -0.8128 C.3       1 <0>         0.4547
     32 F1          3.2938   -3.7494   -0.1014 F         1 <0>        -0.1436
     33 F2          3.7802   -2.1949   -1.7033 F         1 <0>        -0.1672
     34 F3          2.4726   -1.6254    0.0813 F         1 <0>        -0.1556
     35 H4          1.8663    2.0466   -0.9709 H         1 <0>         0.0621
     36 H5          0.4115    2.1137   -1.9942 H         1 <0>         0.0580
     37 H6          0.3102    2.5567   -0.2733 H         1 <0>         0.0641
     38 H7          0.8737   -0.2186   -1.4086 H         1 <0>         0.0459
     39 H8          0.9210    0.1944    0.3221 H         1 <0>         0.0776
     40 H9         -1.4601    0.9712    0.1557 H         1 <0>         0.0951
     41 H10        -1.4883    0.4199   -1.5365 H         1 <0>         0.0839
     42 H11        -1.1899   -2.4174    1.5246 H         1 <0>         0.0886
     43 H12        -0.8718   -0.7063    1.8978 H         1 <0>         0.0839
     44 H13        -3.2671   -0.1808    1.5302 H         1 <0>         0.0763
     45 H14        -3.5852   -1.8919    1.1570 H         1 <0>         0.0808
     46 H15        -3.5006   -3.5807    2.9020 H         1 <0>         0.1233
     47 H16        -3.7518   -4.0581    5.3045 H         1 <0>         0.1227
     48 H17        -3.5056   -2.2450    6.9523 H         1 <0>         0.1216
     49 H18        -3.0074    0.0453    6.1977 H         1 <0>         0.1219
     50 H19        -2.7481    0.5210    3.7957 H         1 <0>         0.1204
     51 H20        -1.6369   -2.2757   -6.2832 H         1 <0>         0.1695
     52 H21         0.3663   -4.0339   -5.2176 H         1 <0>         0.4384
     53 H22         0.7759   -2.8379   -6.2743 H         1 <0>         0.4428
     54 H23         1.4121   -1.3350   -2.6161 H         1 <0>         0.4174
     55 H24         1.6445   -3.0472   -4.8899 H         1 <0>         0.4264
@<TRIPOS>BOND
     1    1    2 1
     2    1   35 1
     3    1   36 1
     4    1   37 1
     5    2    3 1
     6    2   38 1
     7    2   39 1
     8    3    4 1
     9    3   40 1
    10    3   41 1
    11    4    5 1
    12    4   13 am
    13    5    6 1
    14    5   42 1
    15    5   43 1
    16    6    7 1
    17    6   44 1
    18    6   45 1
    19    7   12 ar
    20    7    8 ar
    21    8    9 ar
    22    8   46 1
    23    9   10 ar
    24    9   47 1
    25   10   11 ar
    26   10   48 1
    27   11   12 ar
    28   11   49 1
    29   12   50 1
    30   13   14 2
    31   13   15 1
    32   15   16 1
    33   15   23 1
    34   15   17 1
    35   17   18 1
    36   17   19 1
    37   17   28 1
    38   19   20 1
    39   19   21 1
    40   19   27 1
    41   21   22 2
    42   21   51 1
    43   22   23 1
    44   22   24 1
    45   24   25 2
    46   24   26 1
    47   27   52 1
    48   27   53 1
    49   27   55 1
    50   28   29 am
    51   28   54 1
    52   29   30 2
    53   29   31 1
    54   31   32 1
    55   31   33 1
    56   31   34 1
@<TRIPOS>MOLECULE
CHEMBL182628
   45    46     0     0     0
SMALL
USER_CHARGES

@<TRIPOS>ATOM
      1 C1         -0.6349   -2.6215    1.1573 C.3       1 <0>        -0.1417
      2 C2          0.7976   -2.0857    1.1971 C.3       1 <0>        -0.1090
      3 C3          1.5773   -2.6249   -0.0038 C.3       1 <0>        -0.1436
      4 C4          0.7720   -0.5569    1.1437 C.3       1 <0>        -0.1117
      5 C5          0.0630   -0.0150    2.3865 C.3       1 <0>         0.1165
      6 H1         -0.9127   -0.4908    2.4846 H         1 <0>         0.1086
      7 C6          0.9054   -0.3183    3.6272 C.3       1 <0>         0.0695
      8 H2          1.9159    0.0675    3.4923 H         1 <0>         0.0813
      9 C7          0.2599    0.3262    4.8692 C.3       1 <0>        -0.0721
     10 H3         -0.6401    0.8744    4.5904 H         1 <0>         0.1288
     11 C8         -0.0972   -0.8753    5.7779 C.3       1 <0>        -0.1182
     12 C9         -0.1281   -2.0494    4.7665 C.3       1 <0>         0.0072
     13 H4         -1.0820   -2.0773    4.2399 H         1 <0>         0.0741
     14 O1          0.9500   -1.7372    3.8528 O.3       1 <0>        -0.3141
     15 C10         0.1286   -3.3592    5.4660 C.2       1 <0>         0.5024
     16 O2         -0.6689   -3.7781    6.2877 O.co2     1 <0>        -0.6806
     17 O3          1.1337   -4.0002    5.2103 O.co2     1 <0>        -0.6672
     18 C11         1.2400    1.2398    5.5590 C.2       1 <0>         0.0872
     19 C12         0.9540    2.3953    6.1888 C.2       1 <0>        -0.0047
     20 N1          2.1000    2.9015    6.6677 N.pl3     1 <0>        -0.4726
     21 H5          3.0993    0.3039    5.3193 H         1 <0>         0.4687
     22 C13         3.0853    2.1036    6.3586 C.cat     1 <0>         0.2984
     23 N2          2.5912    1.0517    5.6708 N.pl3     1 <0>        -0.5056
     24 N3         -0.1111    1.4338    2.2567 N.am      1 <0>        -0.7298
     25 C14        -1.2195    1.9297    1.6719 C.2       1 <0>         0.5083
     26 O4         -2.1136    1.1825    1.3354 O.2       1 <0>        -0.5298
     27 C15        -1.3480    3.4126    1.4362 C.3       1 <0>        -0.1710
     28 H6         -1.1472   -2.2242    0.2811 H         1 <0>         0.0465
     29 H7         -0.6144   -3.7100    1.1037 H         1 <0>         0.0557
     30 H8         -1.1638   -2.3120    2.0588 H         1 <0>         0.0515
     31 H9          1.2810   -2.4090    2.1190 H         1 <0>         0.1116
     32 H10         1.0940   -2.3016   -0.9258 H         1 <0>         0.0469
     33 H11         2.5979   -2.2432    0.0245 H         1 <0>         0.0482
     34 H12         1.5956   -3.7141    0.0342 H         1 <0>         0.0572
     35 H13         1.7933   -0.1772    1.1135 H         1 <0>         0.0576
     36 H14         0.2376   -0.2334    0.2505 H         1 <0>         0.0642
     37 H15         0.6720   -1.0332    6.5339 H         1 <0>         0.0766
     38 H16        -1.0736   -0.7355    6.2417 H         1 <0>         0.0954
     39 H17        -0.0263    2.8370    6.2904 H         1 <0>         0.2237
     40 H18         4.1235    2.2573    6.6136 H         1 <0>         0.2654
     41 H19         0.5715    2.0363    2.5916 H         1 <0>         0.3916
     42 H20        -0.4536    3.9174    1.8014 H         1 <0>         0.0713
     43 H21        -1.4620    3.6023    0.3689 H         1 <0>         0.0972
     44 H22        -2.2212    3.7906    1.9678 H         1 <0>         0.0955
     45 H23         2.1833    3.7300    7.1653 H         1 <0>         0.4645
@<TRIPOS>BOND
     1    1    2 1
     2    1   28 1
     3    1   29 1
     4    1   30 1
     5    2    3 1
     6    2    4 1
     7    2   31 1
     8    3   32 1
     9    3   33 1
    10    3   34 1
    11    4    5 1
    12    4   35 1
    13    4   36 1
    14    5    6 1
    15    5    7 1
    16    5   24 1
    17    7    8 1
    18    7   14 1
    19    7    9 1
    20    9   10 1
    21    9   11 1
    22    9   18 1
    23   11   12 1
    24   11   37 1
    25   11   38 1
    26   12   13 1
    27   12   14 1
    28   12   15 1
    29   15   16 2
    30   15   17 1
    31   18   19 2
    32   18   23 1
    33   19   20 1
    34   19   39 1
    35   20   22 2
    36   20   45 1
    37   21   23 1
    38   22   40 1
    39   22   23 1
    40   24   25 am
    41   24   41 1
    42   25   26 2
    43   25   27 1
    44   27   42 1
    45   27   43 1
    46   27   44 1
@<TRIPOS>MOLECULE
CHEMBL182628__1
   44    45     0     0     0
SMALL
USER_CHARGES

@<TRIPOS>ATOM
      1 C1          0.6452   -0.2439    1.3633 C.3       1 <0>        -0.1447
      2 C2          0.0331   -0.0756   -0.0288 C.3       1 <0>        -0.0915
      3 C3          0.8843   -0.8269   -1.0545 C.3       1 <0>        -0.1490
      4 C4         -1.3882   -0.6419   -0.0329 C.3       1 <0>        -0.1280
      5 C5         -2.0504   -0.3483   -1.3805 C.3       1 <0>         0.1343
      6 H1         -1.4402   -0.7627   -2.1831 H         1 <0>         0.0853
      7 C6         -3.4406   -0.9861   -1.4154 C.3       1 <0>         0.0670
      8 H2         -4.0526   -0.5851   -0.6074 H         1 <0>         0.1062
      9 C7         -4.1134   -0.7024   -2.7725 C.3       1 <0>        -0.0300
     10 H3         -3.4637   -0.0926   -3.4003 H         1 <0>         0.0845
     11 C8         -4.3111   -2.1045   -3.3984 C.3       1 <0>        -0.1205
     12 C9         -3.2749   -2.9560   -2.6215 C.3       1 <0>         0.0097
     13 H4         -2.2793   -2.8318   -3.0475 H         1 <0>         0.0580
     14 O1         -3.3274   -2.4127   -1.2810 O.3       1 <0>        -0.3339
     15 C10        -3.6737   -4.4092   -2.6236 C.2       1 <0>         0.5040
     16 O2         -3.7032   -5.0318   -3.6714 O.co2     1 <0>        -0.6953
     17 O3         -3.9668   -4.9625   -1.5774 O.co2     1 <0>        -0.6753
     18 C11        -5.4416   -0.0198   -2.5704 C.2       1 <0>         0.0247
     19 C12        -6.6160   -0.6310   -2.3237 C.2       1 <0>        -0.0442
     20 N1         -7.5587    0.3547   -2.2074 N.pl3     1 <0>        -0.5712
     21 H5         -8.5038    0.2290   -2.0292 H         1 <0>         0.4172
     22 C13        -6.9270    1.5347   -2.3872 C.2       1 <0>         0.1713
     23 N2         -5.6603    1.3032   -2.5988 N.2       1 <0>        -0.4842
     24 N3         -2.1732    1.1006   -1.5589 N.am      1 <0>        -0.7176
     25 C14        -2.8880    1.8297   -0.6792 C.2       1 <0>         0.5231
     26 O4         -3.4296    1.2863    0.2601 O.2       1 <0>        -0.5421
     27 C15        -3.0143    3.3202   -0.8627 C.3       1 <0>        -0.1663
     28 H6          1.6862    0.0789    1.3439 H         1 <0>         0.0484
     29 H7          0.0903    0.3616    2.0798 H         1 <0>         0.0506
     30 H8          0.5953   -1.2922    1.6578 H         1 <0>         0.0553
     31 H9          0.0033    0.9829   -0.2871 H         1 <0>         0.0631
     32 H10         0.9142   -1.8855   -0.7962 H         1 <0>         0.0572
     33 H11         0.4483   -0.7070   -2.0462 H         1 <0>         0.0532
     34 H12         1.8969   -0.4235   -1.0516 H         1 <0>         0.0478
     35 H13        -1.3504   -1.7195    0.1263 H         1 <0>         0.0801
     36 H14        -1.9669   -0.1768    0.7653 H         1 <0>         0.0827
     37 H15        -5.3234   -2.4691   -3.2238 H         1 <0>         0.0729
     38 H16        -4.0825   -2.0905   -4.4640 H         1 <0>         0.0757
     39 H17        -6.7822   -1.6944   -2.2350 H         1 <0>         0.1775
     40 H18        -7.3924    2.5088   -2.3568 H         1 <0>         0.2017
     41 H19        -1.7400    1.5353   -2.3102 H         1 <0>         0.3965
     42 H20        -2.4651    3.6244   -1.7538 H         1 <0>         0.0697
     43 H21        -4.0657    3.5845   -0.9761 H         1 <0>         0.0926
     44 H22        -2.6035    3.8297    0.0089 H         1 <0>         0.0837
@<TRIPOS>BOND
     1    1    2 1
     2    1   28 1
     3    1   29 1
     4    1   30 1
     5    2    3 1
     6    2    4 1
     7    2   31 1
     8    3   32 1
     9    3   33 1
    10    3   34 1
    11    4    5 1
    12    4   35 1
    13    4   36 1
    14    5    6 1
    15    5    7 1
    16    5   24 1
    17    7    8 1
    18    7   14 1
    19    7    9 1
    20    9   10 1
    21    9   11 1
    22    9   18 1
    23   11   12 1
    24   11   37 1
    25   11   38 1
    26   12   13 1
    27   12   14 1
    28   12   15 1
    29   15   16 2
    30   15   17 1
    31   18   23 1
    32   18   19 2
    33   19   20 1
    34   19   39 1
    35   20   21 1
    36   20   22 1
    37   22   23 2
    38   22   40 1
    39   24   25 am
    40   24   41 1
    41   25   26 2
    42   25   27 1
    43   27   42 1
    44   27   43 1
    45   27   44 1
@<TRIPOS>MOLECULE
CHEMBL182628__2
   44    45     0     0     0
SMALL
USER_CHARGES

@<TRIPOS>ATOM
      1 C1         -1.4945   -0.2647   -0.1265 C.3       1 <0>        -0.1453
      2 C2          0.0144   -0.0763    0.0429 C.3       1 <0>        -0.0911
      3 C3          0.4890   -0.8451    1.2776 C.3       1 <0>        -0.1493
      4 C4          0.7370   -0.6066   -1.1970 C.3       1 <0>        -0.1287
      5 C5          2.2304   -0.2918   -1.0907 C.3       1 <0>         0.1324
      6 H1          2.6270   -0.7186   -0.1695 H         1 <0>         0.0874
      7 C6          2.9653   -0.8944   -2.2897 C.3       1 <0>         0.0646
      8 H2          2.5651   -0.4810   -3.2155 H         1 <0>         0.1156
      9 C7          4.4724   -0.5892   -2.1880 C.3       1 <0>        -0.0409
     10 H3          4.6819    0.0063   -1.2995 H         1 <0>         0.0781
     11 C8          5.1351   -1.9837   -2.0744 C.3       1 <0>        -0.1176
     12 C9          3.9577   -2.8636   -1.5826 C.3       1 <0>         0.0106
     13 H4          3.8272   -2.7629   -0.5052 H         1 <0>         0.0584
     14 O1          2.8146   -2.3239   -2.2874 O.3       1 <0>        -0.3284
     15 C10         4.1814   -4.3064   -1.9559 C.2       1 <0>         0.5040
     16 O2          5.1134   -4.9243   -1.4701 O.co2     1 <0>        -0.6949
     17 O3          3.4305   -4.8557   -2.7439 O.co2     1 <0>        -0.6715
     18 C11         4.9505    0.1258   -3.4255 C.2       1 <0>        -0.0008
     19 C12         4.5135   -0.0687   -4.6844 C.2       1 <0>        -0.0094
     20 N1          5.1895    0.7624   -5.4914 N.2       1 <0>        -0.4895
     21 H5          6.4085    1.4639   -2.7371 H         1 <0>         0.4137
     22 C13         6.0288    1.4646   -4.7804 C.2       1 <0>         0.1690
     23 N2          5.9081    1.1020   -3.4851 N.pl3     1 <0>        -0.5704
     24 N3          2.4237    1.1604   -1.0789 N.am      1 <0>        -0.7231
     25 C14         2.0078    1.9041   -2.1230 C.2       1 <0>         0.5094
     26 O4          1.4734    1.3712   -3.0724 O.2       1 <0>        -0.5274
     27 C15         2.2066    3.3979   -2.1109 C.3       1 <0>        -0.1722
     28 H6         -1.8472    0.3521   -0.9531 H         1 <0>         0.0514
     29 H7         -1.7083   -1.3124   -0.3379 H         1 <0>         0.0564
     30 H8         -2.0029    0.0319    0.7909 H         1 <0>         0.0489
     31 H9          0.2365    0.9836    0.1673 H         1 <0>         0.0622
     32 H10         0.2669   -1.9050    1.1532 H         1 <0>         0.0583
     33 H11         1.5639   -0.7108    1.3983 H         1 <0>         0.0519
     34 H12        -0.0258   -0.4673    2.1610 H         1 <0>         0.0485
     35 H13         0.5971   -1.6855   -1.2654 H         1 <0>         0.0830
     36 H14         0.3277   -0.1300   -2.0878 H         1 <0>         0.0846
     37 H15         5.4954   -2.3234   -3.0454 H         1 <0>         0.0775
     38 H16         5.9435   -1.9717   -1.3434 H         1 <0>         0.0746
     39 H17         3.7521   -0.7709   -4.9905 H         1 <0>         0.1691
     40 H18         6.7053    2.2140   -5.1639 H         1 <0>         0.2033
     41 H19         2.8511    1.5866   -0.3195 H         1 <0>         0.3961
     42 H20         3.1711    3.6397   -2.5574 H         1 <0>         0.0867
     43 H21         1.4113    3.8749   -2.6835 H         1 <0>         0.0902
     44 H22         2.1812    3.7594   -1.0829 H         1 <0>         0.0749
@<TRIPOS>BOND
     1    1    2 1
     2    1   28 1
     3    1   29 1
     4    1   30 1
     5    2    3 1
     6    2    4 1
     7    2   31 1
     8    3   32 1
     9    3   33 1
    10    3   34 1
    11    4    5 1
    12    4   35 1
    13    4   36 1
    14    5    6 1
    15    5    7 1
    16    5   24 1
    17    7    8 1
    18    7   14 1
    19    7    9 1
    20    9   10 1
    21    9   11 1
    22    9   18 1
    23   11   12 1
    24   11   37 1
    25   11   38 1
    26   12   13 1
    27   12   14 1
    28   12   15 1
    29   15   16 2
    30   15   17 1
    31   18   19 2
    32   18   23 1
    33   19   20 1
    34   19   39 1
    35   20   22 2
    36   21   23 1
    37   22   40 1
    38   22   23 1
    39   24   25 am
    40   24   41 1
    41   25   26 2
    42   25   27 1
    43   27   42 1
    44   27   43 1
    45   27   44 1
@<TRIPOS>MOLECULE
CHEMBL352694
   58    59     0     0     0
SMALL
USER_CHARGES

@<TRIPOS>ATOM
      1 C1          0.7229    1.4877   -0.3560 C.3       1 <0>        -0.1541
      2 C2          0.4805   -0.0203   -0.2657 C.3       1 <0>        -0.1492
      3 C3         -1.0115   -0.2852   -0.0542 C.3       1 <0>         0.0973
      4 N1         -1.2252   -1.7157    0.1785 N.am      1 <0>        -0.6053
      5 C4         -1.2462   -2.2402    1.5463 C.3       1 <0>         0.1181
      6 C5         -2.6772   -2.1996    2.0861 C.3       1 <0>        -0.1307
      7 C6         -2.6992   -2.7474    3.5145 C.3       1 <0>        -0.0756
      8 C7         -4.1087   -2.7075    4.0463 C.ar      1 <0>        -0.0833
      9 C8         -4.5651   -1.5846    4.7108 C.ar      1 <0>        -0.1186
     10 C9         -5.8580   -1.5480    5.1986 C.ar      1 <0>        -0.1192
     11 C10        -6.6947   -2.6340    5.0214 C.ar      1 <0>        -0.1238
     12 C11        -6.2385   -3.7566    4.3560 C.ar      1 <0>        -0.1164
     13 C12        -4.9469   -3.7915    3.8645 C.ar      1 <0>        -0.1150
     14 C13        -1.4026   -2.5492   -0.8656 C.2       1 <0>         0.5273
     15 O1         -1.5173   -3.7418   -0.6769 O.2       1 <0>        -0.4833
     16 C14        -1.4583   -1.9994   -2.2677 C.3       1 <0>         0.0536
     17 H1         -1.4153   -0.9107   -2.2372 H         1 <0>         0.1014
     18 C15        -0.2763   -2.5411   -3.0830 C.3       1 <0>         0.0959
     19 H2         -0.3540   -3.6250   -3.1673 H         1 <0>         0.1369
     20 C16        -0.3259   -1.9094   -4.4781 C.3       1 <0>         0.0882
     21 H3         -0.0289   -0.8626   -4.4138 H         1 <0>         0.1438
     22 C17        -1.7266   -2.0010   -5.0201 C.2       1 <0>        -0.3735
     23 C18        -2.7736   -2.2344   -4.2403 C.2       1 <0>         0.1415
     24 O2         -2.6711   -2.4163   -2.9010 O.3       1 <0>        -0.2584
     25 C19        -4.1078   -2.2985   -4.8571 C.2       1 <0>         0.5225
     26 O3         -4.2324   -2.1380   -6.0637 O.co2     1 <0>        -0.6485
     27 O4         -5.0928   -2.5123   -4.1634 O.co2     1 <0>        -0.6335
     28 N2          0.5933   -2.6252   -5.3728 N.4       1 <0>        -0.6263
     29 N3          0.9827   -2.1860   -2.4234 N.am      1 <0>        -0.7458
     30 C20         1.5727   -3.0588   -1.5829 C.2       1 <0>         0.5057
     31 O5          1.1145   -4.1734   -1.4463 O.2       1 <0>        -0.4956
     32 C21         2.8019   -2.6498   -0.8128 C.3       1 <0>        -0.1717
     33 H4          1.7939    1.6805   -0.4184 H         1 <0>         0.0602
     34 H5          0.2304    1.8824   -1.2447 H         1 <0>         0.0571
     35 H6          0.3172    1.9747    0.5308 H         1 <0>         0.0616
     36 H7          0.8067   -0.4967   -1.1903 H         1 <0>         0.0607
     37 H8          1.0446   -0.4294    0.5724 H         1 <0>         0.0712
     38 H9         -1.3620    0.2798    0.8095 H         1 <0>         0.0905
     39 H10        -1.5648    0.0254   -0.9405 H         1 <0>         0.0800
     40 H11        -0.8869   -3.2692    1.5463 H         1 <0>         0.0874
     41 H12        -0.6017   -1.6302    2.1792 H         1 <0>         0.0794
     42 H13        -3.0366   -1.1706    2.0860 H         1 <0>         0.0665
     43 H14        -3.3218   -2.8096    1.4531 H         1 <0>         0.0723
     44 H15        -2.3398   -3.7765    3.5146 H         1 <0>         0.0747
     45 H16        -2.0546   -2.1374    4.1475 H         1 <0>         0.0725
     46 H17        -3.9115   -0.7361    4.8493 H         1 <0>         0.1192
     47 H18        -6.2144   -0.6710    5.7184 H         1 <0>         0.1210
     48 H19        -7.7046   -2.6057    5.4030 H         1 <0>         0.1213
     49 H20        -6.8920   -4.6052    4.2178 H         1 <0>         0.1224
     50 H21        -4.5917   -4.6671    3.3414 H         1 <0>         0.1216
     51 H22        -1.8847   -1.8719   -6.0806 H         1 <0>         0.1658
     52 H23         0.3183   -3.5941   -5.4324 H         1 <0>         0.4373
     53 H24         0.5606   -2.2092   -6.2915 H         1 <0>         0.4399
     54 H25         1.3917   -1.3226   -2.5917 H         1 <0>         0.4060
     55 H26         3.0112   -1.5959   -0.9957 H         1 <0>         0.0788
     56 H27         2.6322   -2.8070    0.2524 H         1 <0>         0.1016
     57 H28         3.6511   -3.2507   -1.1381 H         1 <0>         0.1003
     58 H29         1.5325   -2.5639   -5.0091 H         1 <0>         0.4262
@<TRIPOS>BOND
     1    1    2 1
     2    1   33 1
     3    1   34 1
     4    1   35 1
     5    2    3 1
     6    2   36 1
     7    2   37 1
     8    3    4 1
     9    3   38 1
    10    3   39 1
    11    4    5 1
    12    4   14 am
    13    5    6 1
    14    5   40 1
    15    5   41 1
    16    6    7 1
    17    6   42 1
    18    6   43 1
    19    7    8 1
    20    7   44 1
    21    7   45 1
    22    8   13 ar
    23    8    9 ar
    24    9   10 ar
    25    9   46 1
    26   10   11 ar
    27   10   47 1
    28   11   12 ar
    29   11   48 1
    30   12   13 ar
    31   12   49 1
    32   13   50 1
    33   14   15 2
    34   14   16 1
    35   16   17 1
    36   16   24 1
    37   16   18 1
    38   18   19 1
    39   18   20 1
    40   18   29 1
    41   20   21 1
    42   20   22 1
    43   20   28 1
    44   22   23 2
    45   22   51 1
    46   23   24 1
    47   23   25 1
    48   25   26 2
    49   25   27 1
    50   28   52 1
    51   28   53 1
    52   28   58 1
    53   29   30 am
    54   29   54 1
    55   30   31 2
    56   30   32 1
    57   32   55 1
    58   32   56 1
    59   32   57 1
@<TRIPOS>MOLECULE
CHEMBL352694__1
   57    58     0     0     0
SMALL
USER_CHARGES

@<TRIPOS>ATOM
      1 C1          0.1573    1.9031   -0.8746 C.3       1 <0>        -0.1327
      2 C2         -0.0207    0.3844   -0.8206 C.3       1 <0>        -0.1319
      3 C3          0.8739   -0.2718   -1.8741 C.3       1 <0>         0.1082
      4 N1          0.6115   -1.7127   -1.9087 N.am      1 <0>        -0.5930
      5 C4         -0.4690   -2.2405   -2.7454 C.3       1 <0>         0.1132
      6 C5          0.0763   -2.5657   -4.1375 C.3       1 <0>        -0.1253
      7 C6         -1.0521   -3.1169   -5.0113 C.3       1 <0>        -0.0782
      8 C7         -0.5149   -3.4372   -6.3824 C.ar      1 <0>        -0.0766
      9 C8         -0.5255   -2.4718   -7.3718 C.ar      1 <0>        -0.1169
     10 C9         -0.0327   -2.7656   -8.6294 C.ar      1 <0>        -0.1184
     11 C10         0.4710   -4.0247   -8.8977 C.ar      1 <0>        -0.1277
     12 C11         0.4824   -4.9898   -7.9081 C.ar      1 <0>        -0.1191
     13 C12        -0.0064   -4.6947   -6.6492 C.ar      1 <0>        -0.1172
     14 C13         1.3640   -2.5526   -1.1707 C.2       1 <0>         0.5421
     15 O1          1.1080   -3.7380   -1.1513 O.2       1 <0>        -0.5410
     16 C14         2.5237   -2.0190   -0.3698 C.3       1 <0>         0.0525
     17 H1          2.7839   -2.7277    0.4165 H         1 <0>         0.0993
     18 C15         3.7319   -1.8017   -1.2908 C.3       1 <0>         0.1250
     19 H2          3.4925   -1.0459   -2.0388 H         1 <0>         0.1153
     20 C16         4.9094   -1.3257   -0.4336 C.3       1 <0>         0.1304
     21 H3          5.2883   -2.1589    0.1582 H         1 <0>         0.0370
     22 C17         4.4485   -0.2267    0.4849 C.2       1 <0>        -0.2510
     23 C18         3.1660   -0.0160    0.7491 C.2       1 <0>         0.0342
     24 O2          2.1692   -0.7617    0.2126 O.3       1 <0>        -0.2719
     25 C19         2.8086    1.0770    1.6668 C.2       1 <0>         0.5365
     26 O3          3.6862    1.7674    2.1672 O.co2     1 <0>        -0.6696
     27 O4          1.6338    1.2956    1.9297 O.co2     1 <0>        -0.6582
     28 N2          5.9771   -0.8192   -1.3062 N.3       1 <0>        -0.8264
     29 N3          4.0799   -3.0605   -1.9544 N.am      1 <0>        -0.7265
     30 C20         4.6454   -3.0436   -3.1777 C.2       1 <0>         0.5062
     31 O5          4.9498   -1.9875   -3.6905 O.2       1 <0>        -0.5240
     32 C21         4.8994   -4.3369   -3.9084 C.3       1 <0>        -0.1731
     33 H4          1.1790    2.1593   -0.5943 H         1 <0>         0.0618
     34 H5         -0.0413    2.2564   -1.8865 H         1 <0>         0.0351
     35 H6         -0.5390    2.3754   -0.1817 H         1 <0>         0.0542
     36 H7          0.2567    0.0211    0.1690 H         1 <0>         0.1002
     37 H8         -1.0623    0.1333   -1.0210 H         1 <0>         0.0450
     38 H9          0.6605    0.1600   -2.8519 H         1 <0>         0.0648
     39 H10         1.9200   -0.0990   -1.6210 H         1 <0>         0.0932
     40 H11        -0.8704   -3.1467   -2.2917 H         1 <0>         0.0838
     41 H12        -1.2601   -1.4954   -2.8301 H         1 <0>         0.0790
     42 H13         0.4777   -1.6595   -4.5912 H         1 <0>         0.0655
     43 H14         0.8674   -3.3108   -4.0528 H         1 <0>         0.0653
     44 H15        -1.4535   -4.0231   -4.5576 H         1 <0>         0.0744
     45 H16        -1.8432   -2.3719   -5.0960 H         1 <0>         0.0740
     46 H17        -0.9190   -1.4881   -7.1622 H         1 <0>         0.1210
     47 H18        -0.0416   -2.0116   -9.4026 H         1 <0>         0.1202
     48 H19         0.8553   -4.2544   -9.8805 H         1 <0>         0.1189
     49 H20         0.8756   -5.9736   -8.1178 H         1 <0>         0.1197
     50 H21         0.0059   -5.4476   -5.8749 H         1 <0>         0.1205
     51 H22         5.1875    0.4124    0.9453 H         1 <0>         0.1368
     52 H23         6.7656   -0.4989   -0.7641 H         1 <0>         0.3401
     53 H24         6.2591   -1.5190   -1.9761 H         1 <0>         0.3398
     54 H25         3.9035   -3.9063   -1.5134 H         1 <0>         0.4027
     55 H26         3.9482   -4.8159   -4.1405 H         1 <0>         0.0880
     56 H27         5.4381   -4.1318   -4.8335 H         1 <0>         0.0914
     57 H28         5.4955   -4.9983   -3.2798 H         1 <0>         0.0840
@<TRIPOS>BOND
     1    1    2 1
     2    1   33 1
     3    1   34 1
     4    1   35 1
     5    2    3 1
     6    2   36 1
     7    2   37 1
     8    3    4 1
     9    3   38 1
    10    3   39 1
    11    4    5 1
    12    4   14 am
    13    5    6 1
    14    5   40 1
    15    5   41 1
    16    6    7 1
    17    6   42 1
    18    6   43 1
    19    7    8 1
    20    7   44 1
    21    7   45 1
    22    8   13 ar
    23    8    9 ar
    24    9   10 ar
    25    9   46 1
    26   10   11 ar
    27   10   47 1
    28   11   12 ar
    29   11   48 1
    30   12   13 ar
    31   12   49 1
    32   13   50 1
    33   14   15 2
    34   14   16 1
    35   16   17 1
    36   16   24 1
    37   16   18 1
    38   18   19 1
    39   18   20 1
    40   18   29 1
    41   20   21 1
    42   20   22 1
    43   20   28 1
    44   22   23 2
    45   22   51 1
    46   23   24 1
    47   23   25 1
    48   25   26 2
    49   25   27 1
    50   28   52 1
    51   28   53 1
    52   29   30 am
    53   29   54 1
    54   30   31 2
    55   30   32 1
    56   32   55 1
    57   32   56 1
    58   32   57 1
@<TRIPOS>MOLECULE
CHEMBL73669
   55    56     0     0     0
SMALL
USER_CHARGES

@<TRIPOS>ATOM
      1 C1         -0.7056    1.4689   -0.4485 C.3       1 <0>        -0.1540
      2 C2         -0.4684   -0.0331   -0.2784 C.3       1 <0>        -0.1496
      3 C3          0.4669   -0.2704    0.9089 C.3       1 <0>         0.0968
      4 N1          0.8112   -1.6925    0.9827 N.am      1 <0>        -0.6060
      5 C4          2.0190   -2.1891    0.3189 C.3       1 <0>         0.1256
      6 C5          3.2005   -2.1155    1.2881 C.3       1 <0>        -0.0977
      7 C6          4.4431   -2.6264    0.6053 C.ar      1 <0>        -0.0820
      8 C7          4.7649   -3.9692    0.6702 C.ar      1 <0>        -0.1115
      9 C8          5.9046   -4.4378    0.0438 C.ar      1 <0>        -0.1169
     10 C9          6.7223   -3.5637   -0.6477 C.ar      1 <0>        -0.1224
     11 C10         6.3999   -2.2211   -0.7134 C.ar      1 <0>        -0.1196
     12 C11         5.2579   -1.7532   -0.0906 C.ar      1 <0>        -0.1170
     13 C12         0.0167   -2.5439    1.6612 C.2       1 <0>         0.5272
     14 O1          0.2673   -3.7305    1.6703 O.2       1 <0>        -0.4824
     15 C13        -1.1832   -2.0214    2.4085 C.3       1 <0>         0.0537
     16 H1         -1.2056   -0.9331    2.3522 H         1 <0>         0.1018
     17 C14        -2.4662   -2.5976    1.7943 C.3       1 <0>         0.0958
     18 H2         -2.4732   -3.6817    1.9076 H         1 <0>         0.1370
     19 C15        -3.6652   -1.9932    2.5326 C.3       1 <0>         0.0883
     20 H3         -3.7842   -0.9501    2.2396 H         1 <0>         0.1439
     21 C16        -3.4322   -2.0738    4.0169 C.2       1 <0>        -0.3731
     22 C17        -2.2280   -2.2753    4.5347 C.2       1 <0>         0.1415
     23 O2         -1.1150   -2.4320    3.7769 O.3       1 <0>        -0.2585
     24 C18        -2.0936   -2.3309    5.9987 C.2       1 <0>         0.5225
     25 O3         -3.0801   -2.1926    6.7093 O.co2     1 <0>        -0.6484
     26 O4         -0.9954   -2.5154    6.5057 O.co2     1 <0>        -0.6337
     27 N2         -4.8812   -2.7410    2.1863 N.4       1 <0>        -0.6264
     28 N3         -2.5332   -2.2490    0.3730 N.am      1 <0>        -0.7460
     29 C19        -2.0784   -3.1140   -0.5552 C.2       1 <0>         0.5057
     30 O5         -1.7032   -4.2183   -0.2227 O.2       1 <0>        -0.4953
     31 C20        -2.0361   -2.7088   -2.0061 C.3       1 <0>        -0.1719
     32 H4          0.2527    1.9797   -0.5421 H         1 <0>         0.0616
     33 H5         -1.2996    1.6436   -1.3455 H         1 <0>         0.0603
     34 H6         -1.2388    1.8533    0.4210 H         1 <0>         0.0573
     35 H7         -1.4199   -0.5329   -0.0970 H         1 <0>         0.0609
     36 H8         -0.0143   -0.4341   -1.1845 H         1 <0>         0.0713
     37 H9          1.3757    0.3171    0.7786 H         1 <0>         0.0907
     38 H10        -0.0317    0.0309    1.8301 H         1 <0>         0.0809
     39 H11         1.8654   -3.2235    0.0112 H         1 <0>         0.0885
     40 H12         2.2297   -1.5768   -0.5579 H         1 <0>         0.0805
     41 H13         3.3542   -1.0812    1.5958 H         1 <0>         0.0751
     42 H14         2.9899   -2.7279    2.1649 H         1 <0>         0.0803
     43 H15         4.1261   -4.6521    1.2105 H         1 <0>         0.1235
     44 H16         6.1564   -5.4868    0.0951 H         1 <0>         0.1227
     45 H17         7.6131   -3.9297   -1.1365 H         1 <0>         0.1214
     46 H18         7.0389   -1.5381   -1.2534 H         1 <0>         0.1216
     47 H19         5.0041   -0.7048   -0.1450 H         1 <0>         0.1199
     48 H20        -4.2746   -1.9635    4.6837 H         1 <0>         0.1659
     49 H21        -4.7711   -3.7066    2.4577 H         1 <0>         0.4374
     50 H22        -5.6707   -2.3430    2.6725 H         1 <0>         0.4399
     51 H23        -2.9050   -1.3957    0.0999 H         1 <0>         0.4060
     52 H24        -2.3256   -1.6622   -2.0997 H         1 <0>         0.0789
     53 H25        -1.0252   -2.8421   -2.3912 H         1 <0>         0.1016
     54 H26        -2.7270   -3.3293   -2.5768 H         1 <0>         0.1003
     55 H27        -5.0372   -2.6871    1.1909 H         1 <0>         0.4263
@<TRIPOS>BOND
     1    1    2 1
     2    1   32 1
     3    1   33 1
     4    1   34 1
     5    2    3 1
     6    2   35 1
     7    2   36 1
     8    3    4 1
     9    3   37 1
    10    3   38 1
    11    4    5 1
    12    4   13 am
    13    5    6 1
    14    5   39 1
    15    5   40 1
    16    6    7 1
    17    6   41 1
    18    6   42 1
    19    7   12 ar
    20    7    8 ar
    21    8    9 ar
    22    8   43 1
    23    9   10 ar
    24    9   44 1
    25   10   11 ar
    26   10   45 1
    27   11   12 ar
    28   11   46 1
    29   12   47 1
    30   13   14 2
    31   13   15 1
    32   15   16 1
    33   15   23 1
    34   15   17 1
    35   17   18 1
    36   17   19 1
    37   17   28 1
    38   19   20 1
    39   19   21 1
    40   19   27 1
    41   21   22 2
    42   21   48 1
    43   22   23 1
    44   22   24 1
    45   24   25 2
    46   24   26 1
    47   27   49 1
    48   27   50 1
    49   27   55 1
    50   28   29 am
    51   28   51 1
    52   29   30 2
    53   29   31 1
    54   31   52 1
    55   31   53 1
    56   31   54 1
@<TRIPOS>MOLECULE
CHEMBL73669__1
   54    55     0     0     0
SMALL
USER_CHARGES

@<TRIPOS>ATOM
      1 C1          0.1572    1.9029   -0.8744 C.3       1 <0>        -0.1326
      2 C2         -0.0207    0.3842   -0.8203 C.3       1 <0>        -0.1322
      3 C3          0.8739   -0.2720   -1.8738 C.3       1 <0>         0.1078
      4 N1          0.6115   -1.7129   -1.9084 N.am      1 <0>        -0.5937
      5 C4         -0.4690   -2.2408   -2.7450 C.3       1 <0>         0.1209
      6 C5          0.0763   -2.5659   -4.1371 C.3       1 <0>        -0.0950
      7 C6         -1.0353   -3.1090   -4.9977 C.ar      1 <0>        -0.0751
      8 C7         -1.2865   -4.4680   -5.0260 C.ar      1 <0>        -0.1131
      9 C8         -2.3061   -4.9662   -5.8155 C.ar      1 <0>        -0.1194
     10 C9         -3.0747   -4.1052   -6.5763 C.ar      1 <0>        -0.1268
     11 C10        -2.8240   -2.7461   -6.5473 C.ar      1 <0>        -0.1193
     12 C11        -1.8072   -2.2475   -5.7546 C.ar      1 <0>        -0.1156
     13 C12         1.3642   -2.5528   -1.1705 C.2       1 <0>         0.5421
     14 O1          1.1082   -3.7381   -1.1510 O.2       1 <0>        -0.5399
     15 C13         2.5238   -2.0191   -0.3696 C.3       1 <0>         0.0525
     16 H1          2.7842   -2.7277    0.4166 H         1 <0>         0.0997
     17 C14         3.7319   -1.8017   -1.2907 C.3       1 <0>         0.1240
     18 H2          3.4925   -1.0459   -2.0388 H         1 <0>         0.1158
     19 C15         4.9095   -1.3256   -0.4336 C.3       1 <0>         0.1304
     20 H3          5.2885   -2.1588    0.1581 H         1 <0>         0.0372
     21 C16         4.4486   -0.2266    0.4849 C.2       1 <0>        -0.2510
     22 C17         3.1662   -0.0160    0.7491 C.2       1 <0>         0.0344
     23 O2          2.1693   -0.7617    0.2128 O.3       1 <0>        -0.2719
     24 C18         2.8088    1.0770    1.6669 C.2       1 <0>         0.5363
     25 O3          3.6864    1.7674    2.1672 O.co2     1 <0>        -0.6695
     26 O4          1.6340    1.2956    1.9299 O.co2     1 <0>        -0.6580
     27 N2          5.9772   -0.8191   -1.3063 N.3       1 <0>        -0.8264
     28 N3          4.0800   -3.0606   -1.9544 N.am      1 <0>        -0.7253
     29 C19         4.6454   -3.0436   -3.1777 C.2       1 <0>         0.5059
     30 O5          4.9497   -1.9875   -3.6905 O.2       1 <0>        -0.5254
     31 C20         4.8994   -4.3369   -3.9084 C.3       1 <0>        -0.1706
     32 H4          1.1789    2.1592   -0.5941 H         1 <0>         0.0619
     33 H5         -0.0415    2.2561   -1.8862 H         1 <0>         0.0352
     34 H6         -0.5390    2.3752   -0.1814 H         1 <0>         0.0542
     35 H7          0.2568    0.0209    0.1692 H         1 <0>         0.1004
     36 H8         -1.0623    0.1331   -1.0206 H         1 <0>         0.0451
     37 H9          0.6604    0.1598   -2.8516 H         1 <0>         0.0651
     38 H10         1.9200   -0.0991   -1.6209 H         1 <0>         0.0939
     39 H11        -0.8703   -3.1469   -2.2912 H         1 <0>         0.0850
     40 H12        -1.2601   -1.4957   -2.8296 H         1 <0>         0.0800
     41 H13         0.4775   -1.6598   -4.5909 H         1 <0>         0.0744
     42 H14         0.8674   -3.3110   -4.0525 H         1 <0>         0.0740
     43 H15        -0.6860   -5.1407   -4.4316 H         1 <0>         0.1222
     44 H16        -2.5019   -6.0280   -5.8381 H         1 <0>         0.1202
     45 H17        -3.8708   -4.4945   -7.1936 H         1 <0>         0.1189
     46 H18        -3.4243   -2.0735   -7.1420 H         1 <0>         0.1205
     47 H19        -1.6138   -1.1853   -5.7291 H         1 <0>         0.1219
     48 H20         5.1876    0.4125    0.9452 H         1 <0>         0.1368
     49 H21         6.7657   -0.4988   -0.7644 H         1 <0>         0.3402
     50 H22         6.2591   -1.5189   -1.9762 H         1 <0>         0.3397
     51 H23         3.9037   -3.9063   -1.5133 H         1 <0>         0.4028
     52 H24         4.4831   -5.1656   -3.3357 H         1 <0>         0.0750
     53 H25         4.4257   -4.2990   -4.8894 H         1 <0>         0.0937
     54 H26         5.9730   -4.4814   -4.0287 H         1 <0>         0.0929
@<TRIPOS>BOND
     1    1    2 1
     2    1   32 1
     3    1   33 1
     4    1   34 1
     5    2    3 1
     6    2   35 1
     7    2   36 1
     8    3    4 1
     9    3   37 1
    10    3   38 1
    11    4    5 1
    12    4   13 am
    13    5    6 1
    14    5   39 1
    15    5   40 1
    16    6    7 1
    17    6   41 1
    18    6   42 1
    19    7   12 ar
    20    7    8 ar
    21    8    9 ar
    22    8   43 1
    23    9   10 ar
    24    9   44 1
    25   10   11 ar
    26   10   45 1
    27   11   12 ar
    28   11   46 1
    29   12   47 1
    30   13   14 2
    31   13   15 1
    32   15   16 1
    33   15   23 1
    34   15   17 1
    35   17   18 1
    36   17   19 1
    37   17   28 1
    38   19   20 1
    39   19   21 1
    40   19   27 1
    41   21   22 2
    42   21   48 1
    43   22   23 1
    44   22   24 1
    45   24   25 2
    46   24   26 1
    47   27   49 1
    48   27   50 1
    49   28   29 am
    50   28   51 1
    51   29   30 2
    52   29   31 1
    53   31   52 1
    54   31   53 1
    55   31   54 1
